10
02/13/2019 22:15, XYZ structure generated by mol3D Class, molSimplify
C 	-2.266463	0.095449	-0.176271
C 	-1.126431	-0.067539	0.157803
C 	0.281916	-0.161287	0.492121
C 	1.303029	0.746548	-0.073382
N 	1.233449	-0.667092	-0.461269
H 	-3.295355	0.174525	-0.385844
H 	0.462035	-0.465600	1.506877
H 	2.133569	1.086717	0.537506
H 	0.947828	1.426744	-0.854665
H 	1.949775	-1.218919	0.014610
