14
02/13/2019 22:15, XYZ structure generated by mol3D Class, molSimplify
C 	2.619350	-0.177554	0.069025
C 	1.204380	0.363294	-0.187305
C 	0.018725	-0.244243	0.091095
C 	-1.323017	0.544027	0.099564
N 	-2.455197	-0.353910	-0.137975
H 	2.458336	-1.322402	0.455848
H 	3.182963	-0.247358	-0.908700
H 	3.232165	0.546464	0.711504
H 	1.289056	1.578359	-0.496255
H 	0.024715	-1.267783	0.544419
H 	-1.574774	0.941064	1.106035
H 	-1.374761	1.426102	-0.504946
H 	-3.198596	-0.606640	0.881210
H 	-2.213921	-1.315433	-0.771993
