10
02/11/2019 18:37, XYZ structure generated by mol3D Class, molSimplify
O 	-1.275408	-0.611522	0.040660
C 	-0.692630	0.642349	-0.268156
C 	0.710352	0.577625	0.289848
O 	1.373988	-0.611349	-0.162829
H 	-1.721453	-0.387546	0.929537
H 	-0.587652	0.610343	-1.314380
H 	-1.273980	1.435655	0.126407
H 	0.797212	0.679492	1.418452
H 	1.127764	1.424946	-0.251321
H 	0.565344	-1.174247	-0.112956
