8
02/13/2019 22:15, XYZ structure generated by mol3D Class, molSimplify
C 	-1.082265	0.462648	-0.016539
C 	0.118343	1.118842	-0.017541
N 	1.076888	0.176034	0.000953
N 	0.473778	-1.081385	-0.029343
N 	-0.762028	-0.922888	0.039510
H 	-2.102936	0.770900	-0.054163
H 	0.269949	2.219174	0.180308
H 	2.044311	0.403673	0.125146
