12
02/11/2019 18:37, XYZ structure generated by mol3D Class, molSimplify
N 	1.915290	-0.034642	-0.058616
C 	0.562962	0.495830	0.029964
C 	-0.575241	-0.501518	0.102256
N 	-1.847001	0.162186	-0.189804
H 	2.280461	-0.444490	0.796965
H 	1.908695	-0.764336	-0.780707
H 	0.476804	1.316788	-0.801624
H 	0.568614	1.099759	0.996649
H 	-0.559263	-1.124294	1.053067
H 	-0.404258	-1.286479	-0.709159
H 	-2.591394	-0.559758	0.189583
H 	-1.983543	1.040729	0.472275
