16
03/25/2019 10:01, XYZ structure generated by mol3D Class, molSimplify
C 	2.549391	-0.617154	0.201453
C 	1.690393	0.655262	-0.098061
C 	0.356865	0.693677	-0.286743
C 	-0.740324	-0.363326	-0.117945
C 	-1.880706	-0.208169	0.897494
C 	-2.120677	0.044440	-0.637456
H 	1.988358	-1.506171	-1.222867
H 	1.924905	-1.175036	1.925474
H 	4.336918	-0.251258	0.194837
H 	2.253604	1.520632	0.000868
H 	-0.183496	1.666505	-0.621771
H 	-0.331894	-1.331529	-0.388566
H 	-2.010074	0.605240	1.716770
H 	-2.211569	-1.180516	1.217750
H 	-2.241009	1.023474	-1.032863
H 	-2.707740	-0.624825	-1.298426
