14
03/25/2019 10:01, XYZ structure generated by mol3D Class, molSimplify
C 	2.983192	-0.110399	-0.083482
C 	1.566114	0.027895	0.139780
C 	0.377978	0.159735	0.052760
C 	-1.058816	0.040448	0.329002
C 	-2.045897	1.123602	-0.191178
O 	-1.540199	-1.215170	-0.178043
H 	3.360447	-1.720553	0.281945
H 	3.448737	1.086144	0.997760
H 	3.105091	0.222494	-1.641193
H 	-1.106647	-0.029781	1.397256
H 	-3.047316	1.001992	0.112907
H 	-2.160825	1.197245	-1.316359
H 	-1.737321	2.150481	0.101927
H 	-0.780245	-1.856453	-0.031400
