10
03/25/2019 10:01, XYZ structure generated by mol3D Class, molSimplify
O 	1.303316	-1.410145	-0.032949
N 	0.382286	-0.400835	-0.185526
C 	-1.018711	-0.857624	0.191592
N 	-1.829206	0.200683	-0.194052
C 	0.832863	0.929231	-0.185833
O 	0.138772	1.892568	0.253432
H 	1.880966	-1.080308	0.957409
H 	-1.285357	-2.203027	0.926956
H 	-2.816193	-0.297967	0.242649
H 	1.977571	0.924066	-0.645700
