11
02/13/2019 22:15, XYZ structure generated by mol3D Class, molSimplify
N 	-1.847919	0.462112	0.018977
C 	-1.050602	-0.513852	-0.095610
N 	0.277508	-0.271613	-0.390025
C 	0.997869	0.864648	0.033717
C 	1.585520	-0.517376	0.252056
H 	-2.847331	0.316051	0.365498
H 	-1.206556	-1.642815	-0.022095
H 	0.545210	1.323437	0.992351
H 	1.291897	1.626119	-0.753684
H 	1.785932	-0.922584	1.335558
H 	2.385535	-0.948664	-0.500427
