10
02/13/2019 22:15, XYZ structure generated by mol3D Class, molSimplify
N 	1.654221	-0.506672	-0.233582
C 	0.462528	0.103414	0.119242
N 	0.268739	1.326112	0.086680
N 	-0.595194	-0.746534	0.108157
O 	-1.893241	-0.120853	-0.186243
H 	2.516563	0.106875	-0.061665
H 	1.691034	-1.496742	0.254434
H 	1.205831	1.815472	0.037429
H 	-0.728726	-1.291074	0.937797
H 	-1.567610	0.822541	-0.125045
