13
02/13/2019 22:15, XYZ structure generated by mol3D Class, molSimplify
C 	0.005160	1.284114	-0.090908
C 	1.233214	0.329199	0.072527
C 	0.647785	-1.110911	-0.052405
C 	-0.662883	-1.083422	-0.031269
C 	-1.215693	0.274585	0.083834
H 	-0.039662	2.196610	0.655264
H 	0.043984	1.773238	-1.115992
H 	1.632487	0.425690	1.130923
H 	2.038846	0.480329	-0.667805
H 	1.286596	-1.991546	-0.070221
H 	-1.339155	-1.901564	-0.141260
H 	-1.710609	0.445296	1.069161
H 	-2.002763	0.486759	-0.643120
