12
02/13/2019 22:15, XYZ structure generated by mol3D Class, molSimplify
C 	2.655072	0.159927	-0.015809
C 	1.228552	-0.086139	0.007984
C 	0.026086	-0.258578	0.021645
C 	-1.396241	-0.573226	0.153466
N 	-2.356606	0.559795	-0.111682
H 	2.795867	2.128154	-0.078263
H 	3.326906	-0.620760	1.608174
H 	3.159673	-0.817714	-1.566381
H 	-1.656865	-1.073535	1.108393
H 	-1.654705	-1.329853	-0.594760
H 	-2.019198	1.493821	0.386249
H 	-2.658270	0.709593	-1.303259
