9
02/13/2019 22:15, XYZ structure generated by mol3D Class, molSimplify
C 	1.291926	-1.070385	0.006638
C 	0.450534	0.232498	0.060856
O 	0.943006	1.342595	-0.020055
C 	-1.014138	-0.002381	0.083303
C 	-2.182960	-0.204982	-0.080149
H 	2.273242	-1.081488	0.583307
H 	1.592100	-1.224863	-1.149933
H 	0.418427	-1.815759	0.155112
H 	-3.261450	-0.471504	-0.111353
