8
02/11/2019 18:37, XYZ structure generated by mol3D Class, molSimplify
C 	1.663285	-0.353991	-0.015989
C 	0.651460	0.482414	0.029461
C 	-0.743043	0.078314	-0.050271
C 	-1.922524	-0.151739	0.031941
H 	2.683218	-0.026892	0.043922
H 	1.553372	-1.453800	0.076743
H 	0.869545	1.512229	-0.011656
H 	-2.965621	-0.314724	-0.051180
