13
02/13/2019 22:15, XYZ structure generated by mol3D Class, molSimplify
C 	-1.918964	0.488827	-0.074734
C 	-0.852351	-0.766528	0.151842
C 	0.644130	-0.302879	-0.066939
C 	0.771378	1.195292	-0.150418
O 	1.726861	-1.021196	0.059058
H 	-1.876886	1.381858	1.036022
H 	-2.917267	-0.005916	-0.028737
H 	-1.780197	1.328214	-1.207439
H 	-0.911664	-1.772438	-0.385966
H 	-0.725574	-1.025546	1.258227
H 	1.798360	1.669148	-0.607514
H 	-0.153867	1.741934	-0.770371
H 	0.382003	1.611654	0.894926
