15
02/13/2019 22:15, XYZ structure generated by mol3D Class, molSimplify
N 	-2.535027	-0.225113	-0.011832
C 	-1.273987	0.509960	0.039227
C 	-0.004467	-0.341631	-0.032980
C 	1.272172	0.490871	0.020455
N 	2.447197	-0.367289	-0.101312
H 	-2.571389	-0.776559	-0.865392
H 	-2.568030	-0.896201	0.752220
H 	-1.269579	1.103586	0.963661
H 	-1.278699	1.233626	-0.787234
H 	0.002856	-0.933999	-0.956829
H 	-0.005002	-1.063740	0.800173
H 	1.261969	1.105452	0.938938
H 	1.279914	1.190363	-0.823771
H 	3.290715	0.197981	-0.098538
H 	2.508107	-0.973896	0.713378
