12
03/25/2019 10:02, XYZ structure generated by mol3D Class, molSimplify
O 	1.034663	-1.434086	0.149800
C 	1.758979	-0.145771	-0.117341
C 	0.892061	1.097360	-0.375342
C 	-0.531787	1.166071	0.351140
C 	-1.329139	-0.075747	0.116910
C 	-2.237614	-0.895649	-0.048650
H 	3.191932	0.316680	-0.370223
H 	0.870669	1.236261	-1.477525
H 	1.397713	1.994653	0.173557
H 	-0.350810	1.278984	1.455990
H 	-1.282542	2.104576	0.020219
H 	-3.155333	-1.497853	-0.136410
