10
02/13/2019 22:15, XYZ structure generated by mol3D Class, molSimplify
N 	2.153839	-0.170015	-0.097685
C 	0.763899	-0.221857	-0.021027
C 	-0.088332	0.770244	-0.085427
C 	-1.399081	0.416218	0.056396
O 	-1.831566	-0.751082	-0.003691
H 	2.564662	-1.104834	1.076808
H 	2.662144	0.621763	0.679921
H 	0.371731	-1.220338	-0.135150
H 	0.367225	1.748678	0.050128
H 	-2.121993	1.213637	0.340167
