14
03/25/2019 10:01, XYZ structure generated by mol3D Class, molSimplify
C 	-2.894490	-0.224659	-0.203476
O 	-1.539297	-0.512404	0.109534
C 	-0.748448	0.646030	0.145143
C 	0.660845	0.279043	0.151456
C 	1.873351	0.101985	-0.064229
C 	3.304804	-0.279733	-0.100843
H 	-3.418322	-1.199918	-0.221240
H 	-3.126897	0.262927	-1.191334
H 	-3.435781	0.438678	0.557705
H 	-1.047413	1.158289	1.050835
H 	-0.931400	1.306590	-0.721595
H 	3.674136	-0.444771	-1.331513
H 	3.924241	0.787911	0.376190
H 	3.435372	-1.373016	0.599243
