11
02/11/2019 18:17, XYZ structure generated by mol3D Class, molSimplify
C 	0.002680	1.227716	-0.244937
C 	0.030407	0.022191	0.570935
C 	0.001440	-1.264076	-0.261350
H 	-0.713857	1.057488	-1.137584
H 	-0.343190	2.082784	0.358090
H 	0.989876	1.561625	-0.699336
H 	0.951759	0.154073	1.254745
H 	-0.816822	-0.000229	1.302732
H 	-0.211424	-2.227107	0.286177
H 	0.790730	-1.307998	-0.969177
H 	-1.058178	-1.151921	-0.760376
