16
03/25/2019 10:01, XYZ structure generated by mol3D Class, molSimplify
C 	-1.602788	-1.156258	-0.505319
C 	-1.153395	-0.135975	0.666362
C 	0.038740	0.671471	0.142219
C 	-0.048894	1.998356	-0.033744
C 	1.400278	0.070529	-0.253250
C 	1.748022	-1.147444	0.059789
H 	-2.736009	-1.526434	-0.212737
H 	-0.774524	-2.024457	-0.543389
H 	-1.595317	-0.594543	-1.603961
H 	-1.891360	0.694507	0.763766
H 	-1.036460	-0.684579	1.637132
H 	0.939417	2.370098	-0.336461
H 	-0.939532	2.644595	0.148212
H 	1.993012	0.737948	-0.903855
H 	2.618572	-1.652884	-0.385499
H 	1.226936	-1.735214	0.951741
