9
02/13/2019 22:15, XYZ structure generated by mol3D Class, molSimplify
O 	1.834928	0.012465	0.212832
C 	0.640927	-0.009631	-0.168855
C 	-0.417927	1.071336	-0.234762
O 	-1.403417	0.004381	0.328254
C 	-0.461980	-1.095487	-0.180032
H 	-0.751300	1.574360	-1.257486
H 	-0.363351	2.001675	0.526200
H 	-0.364514	-2.151683	0.458897
H 	-0.573256	-1.289464	-1.365629
