8
03/25/2019 10:02, XYZ structure generated by mol3D Class, molSimplify
O 	-1.929405	-0.076273	-0.004464
C 	-0.620813	0.049471	-0.000043
N 	0.085054	1.142727	0.004433
C 	1.347270	0.614077	-0.001539
N 	1.422320	-0.686437	-0.002738
O 	0.072896	-1.074508	0.004574
H 	-2.308491	0.816287	0.011859
H 	2.253032	1.210090	-0.018331
