9
02/13/2019 22:15, XYZ structure generated by mol3D Class, molSimplify
N 	-1.209423	-1.097074	0.029610
C 	-0.490817	0.087424	-0.090809
N 	-1.073111	1.220988	0.057278
C 	0.951529	-0.036309	-0.067048
C 	2.195679	-0.020803	0.024933
H 	-0.678634	-1.968209	0.305284
H 	-2.253535	-1.033430	-0.188042
H 	-0.260588	1.896222	0.018849
H 	3.313456	0.155451	0.239332
