12
03/25/2019 10:01, XYZ structure generated by mol3D Class, molSimplify
C 	1.459592	1.065566	0.416992
N 	0.641921	0.042190	-0.395204
O 	1.230567	-1.178816	-0.204160
C 	-0.762792	-0.087983	-0.120525
N 	-1.546448	1.021667	-0.310922
O 	-1.223286	-1.163353	0.452403
H 	2.481496	1.211209	-0.102833
H 	1.008656	2.314431	0.494069
H 	1.571217	0.807687	1.579764
H 	0.544033	-1.842948	-0.139548
H 	-0.996150	2.057613	-0.900666
H 	-2.396200	0.954022	0.374128
