15
02/13/2019 22:15, XYZ structure generated by mol3D Class, molSimplify
C 	1.052345	1.267245	-0.256100
C 	0.501022	0.023648	0.510886
C 	1.031722	-1.251285	-0.178330
C 	-1.038828	-0.093405	0.575726
C 	-1.881151	0.050383	-0.440707
H 	0.843545	1.392541	-1.372211
H 	2.139368	1.181863	-0.240630
H 	0.755754	2.209301	0.160886
H 	0.979626	0.024792	1.460772
H 	0.790957	-2.170806	0.336140
H 	2.109251	-1.235813	-0.385697
H 	0.565670	-1.249495	-1.164563
H 	-1.543430	-0.250375	1.542593
H 	-2.914668	-0.071571	-0.255372
H 	-1.645786	0.210204	-1.504413
