15
02/13/2019 22:15, XYZ structure generated by mol3D Class, molSimplify
C 	-1.705222	-0.787939	0.010412
C 	-0.448391	0.006130	-0.341812
C 	-0.551349	1.455407	0.131168
C 	0.781476	-0.671877	0.247113
O 	1.934432	0.032491	-0.178965
H 	-1.644933	-1.821676	-0.350424
H 	-1.855556	-0.818343	1.097286
H 	-2.595555	-0.328939	-0.431637
H 	-0.320606	0.000800	-1.433313
H 	-0.699132	1.496607	1.218786
H 	-1.399632	1.962304	-0.341713
H 	0.361378	2.007193	-0.110131
H 	0.816512	-1.722807	-0.083108
H 	0.699666	-0.672193	1.347917
H 	2.702805	-0.377833	0.232825
