10
02/13/2019 22:15, XYZ structure generated by mol3D Class, molSimplify
C 	1.800695	-0.414768	-0.377713
N 	0.327814	-0.085382	0.640949
O 	0.334719	1.350348	0.069842
C 	-0.842195	-0.705665	0.206802
O 	-1.962826	-0.175175	-0.405935
H 	3.315047	0.491987	-0.007758
H 	1.572629	-0.645467	-2.154960
H 	1.608284	-1.535314	0.362513
H 	-0.700681	1.523550	-0.357006
H 	-0.641755	-1.782315	0.391961
