10
02/13/2019 22:15, XYZ structure generated by mol3D Class, molSimplify
C 	-2.270297	-0.093710	-0.032748
C 	-0.951988	-0.356880	0.055250
N 	0.010566	0.599028	-0.016390
C 	1.372953	0.383373	0.068933
O 	1.941340	-0.674212	-0.060653
H 	-3.135427	-0.829232	0.182582
H 	-2.652546	0.954302	-0.254698
H 	-0.534913	-1.400851	0.174841
H 	-0.246855	1.586942	-0.158493
H 	1.940962	1.383500	0.157399
