14
03/25/2019 10:01, XYZ structure generated by mol3D Class, molSimplify
C 	1.198273	1.392602	0.087570
C 	1.157161	-0.011990	-0.322791
C 	0.875727	-1.115355	0.599610
C 	-0.140642	-0.789485	-0.447756
C 	-1.366168	-0.144585	-0.128652
C 	-2.393968	0.411355	0.091907
H 	0.679216	2.037577	-0.700528
H 	0.608276	1.483993	1.075650
H 	2.325980	1.715454	0.188019
H 	1.880901	-0.227580	-1.131660
H 	0.600057	-0.866167	1.617442
H 	1.484922	-2.040117	0.560684
H 	-0.255192	-1.486993	-1.283621
H 	-3.268981	0.909561	0.384932
