10
03/25/2019 10:01, XYZ structure generated by mol3D Class, molSimplify
O 	1.236998	-1.359656	-0.231263
N 	0.319913	-0.333370	0.372594
C 	-0.973328	-0.868973	0.034694
N 	-1.991990	0.008507	-0.046300
C 	0.918585	0.940730	-0.066584
O 	0.286762	1.983170	-0.015536
H 	1.750147	-1.622199	0.623378
H 	-0.837930	-1.880623	-0.303272
H 	-2.852037	-0.456529	-0.324155
H 	1.967972	0.793913	-0.457866
