14
02/13/2019 22:15, XYZ structure generated by mol3D Class, molSimplify
C 	-0.774905	1.138630	0.372191
C 	0.799338	0.924059	-0.488801
C 	1.131687	-0.373613	0.466933
N 	0.078146	-1.287363	-0.178901
C 	-1.216436	-0.501226	-0.111494
H 	-1.715938	2.243053	-0.091750
H 	-0.719916	1.183615	1.892362
H 	1.725660	2.156091	-0.561119
H 	0.512916	0.342123	-2.041433
H 	0.845660	-0.278898	1.628213
H 	2.299421	-0.907349	0.468201
H 	0.430070	-1.270602	-1.176788
H 	-1.781058	-0.617075	-1.286549
H 	-1.964261	-1.064803	0.868762
