11
02/13/2019 22:15, XYZ structure generated by mol3D Class, molSimplify
C 	1.143276	-1.184829	0.009494
C 	0.457359	0.146765	0.010510
C 	1.067853	1.309123	0.008852
C 	-1.024280	0.065659	-0.094874
C 	-2.212996	-0.145537	0.050220
H 	2.242376	-1.014061	-0.200229
H 	0.759932	-1.869463	-0.787217
H 	1.012532	-1.706030	0.962505
H 	0.491547	2.232501	0.029403
H 	2.173593	1.355048	0.183103
H 	-3.262994	-0.151929	0.000515
