13
02/13/2019 22:15, XYZ structure generated by mol3D Class, molSimplify
C 	2.017236	0.313003	-0.021833
C 	0.859357	-0.676360	-0.141869
C 	-0.397475	-0.139508	0.494236
C 	-1.722236	-0.352703	-0.085418
O 	-1.061045	0.898176	-0.219149
H 	2.251415	0.522970	1.027829
H 	1.756641	1.259891	-0.505042
H 	2.924057	-0.076836	-0.495954
H 	0.653303	-0.886717	-1.198044
H 	1.119479	-1.630544	0.334518
H 	-0.338336	0.040296	1.571357
H 	-2.606323	-0.349852	0.552951
H 	-1.814330	-0.931283	-1.005290
