13
02/13/2019 22:15, XYZ structure generated by mol3D Class, molSimplify
C 	-1.930084	0.100787	-0.326291
C 	-0.784248	-0.500986	0.417951
C 	0.612933	-0.202710	0.065080
C 	1.053074	1.325518	0.124892
O 	1.427508	-1.034721	-0.279971
H 	-2.159208	1.129078	-0.044942
H 	-2.807788	-0.393388	-0.077953
H 	-1.729765	-0.054674	-1.431317
H 	-0.872504	-1.532274	0.126705
H 	-0.988986	-0.279489	1.524625
H 	2.157885	1.360729	-0.420220
H 	0.131594	1.833627	-0.425071
H 	1.173500	1.795246	1.294704
