15
03/25/2019 10:01, XYZ structure generated by mol3D Class, molSimplify
C 	-2.176589	-0.902649	-0.319774
C 	-1.375314	0.297344	0.429596
C 	0.054213	0.595380	0.032047
N 	0.604301	1.802223	0.034186
N 	0.710144	-0.625116	-0.106886
N 	2.166387	-0.816285	-0.029642
H 	-3.232264	-0.892919	0.055520
H 	-2.077376	-0.874048	-1.585964
H 	-1.730289	-2.039230	0.132618
H 	-1.973110	1.296389	0.262536
H 	-1.390947	0.082109	1.547228
H 	1.605404	1.643241	-0.156282
H 	0.274376	-1.528189	0.207043
H 	2.546189	-0.741438	-0.978987
H 	2.583286	-0.107882	0.554613
