14
02/13/2019 22:15, XYZ structure generated by mol3D Class, molSimplify
N 	-1.121953	-1.168243	-0.027802
C 	-1.196888	0.565092	-0.435362
C 	0.082889	1.381865	0.004197
C 	1.272702	0.436906	0.488936
O 	0.906408	-1.137334	-0.039194
H 	-1.134363	-1.318543	1.123056
H 	0.043313	-1.573897	-0.492891
H 	-1.286732	0.781923	-1.921943
H 	-2.272259	1.292085	0.114499
H 	-0.221540	2.096246	0.812688
H 	0.365798	1.967264	-0.858844
H 	2.480371	1.003906	0.279875
H 	0.999767	0.393005	1.696258
H 	1.196045	-1.149391	-1.074799
