12
03/25/2019 10:01, XYZ structure generated by mol3D Class, molSimplify
C 	2.133973	-0.654381	0.032751
N 	0.694847	-0.644070	-0.096701
C 	0.000105	0.519767	-0.037736
O 	0.479113	1.636513	0.047621
N 	-1.397510	0.386413	-0.176120
O 	-1.897374	-0.873937	0.195131
H 	2.454861	-0.970057	1.029619
H 	2.590189	-1.296448	-0.723216
H 	2.474802	0.366300	-0.123447
H 	0.155918	-1.494715	0.012393
H 	-1.856397	1.104390	0.374585
H 	-2.342400	-1.179398	-0.605400
