10
03/25/2019 10:02, XYZ structure generated by mol3D Class, molSimplify
O 	-2.005330	-0.099105	0.139306
C 	-0.651374	0.112299	-0.076644
C 	0.167676	1.193409	-0.045194
C 	1.449522	0.545917	0.071046
N 	1.416412	-0.739938	0.002660
N 	0.092001	-1.034327	-0.058158
H 	-2.482308	0.761497	-1.064855
H 	-0.110661	2.258336	0.159063
H 	2.451222	1.064468	0.068442
H 	-0.172158	-1.985903	0.002349
