8
02/11/2019 18:37, XYZ structure generated by mol3D Class, molSimplify
C 	-1.393615	-0.107298	0.000110
C 	0.092258	0.123429	-0.001336
O 	0.774389	-1.042394	-0.000303
O 	0.645845	1.195697	0.001133
H 	-1.677687	-0.682267	0.885123
H 	-1.680655	-0.694766	-0.875159
H 	-1.911125	0.852007	-0.008124
H 	1.714712	-0.800193	-0.000405
