11
02/13/2019 22:15, XYZ structure generated by mol3D Class, molSimplify
C 	0.986786	-0.580745	-0.373893
C 	0.835027	0.828202	0.386812
O 	-0.411590	1.036888	-0.396035
C 	-1.253601	-0.073655	-0.020161
O 	-0.230388	-1.220845	0.348784
H 	0.843908	-0.283403	-1.769716
H 	2.183858	-1.433727	-0.353831
H 	1.690858	1.672767	0.159754
H 	0.678842	0.690789	1.628294
H 	-2.024987	-0.204200	-0.863731
H 	-1.967447	0.053942	0.856066
