16
03/25/2019 10:01, XYZ structure generated by mol3D Class, molSimplify
C 	2.227172	-0.001526	0.374063
N 	1.027023	0.000932	-0.425626
C 	0.023792	1.038728	-0.148377
C 	-1.079183	-0.001434	-0.405665
N 	-2.186987	0.001365	0.531177
C 	0.027726	-1.039912	-0.148768
H 	2.828713	-0.884689	0.131000
H 	2.823379	0.890450	0.141263
H 	2.019074	-0.003011	1.461352
H 	0.001488	1.346655	0.911703
H 	0.077776	1.924861	-0.793372
H 	-1.368024	-0.002006	-1.468769
H 	-2.781544	-0.806661	0.360609
H 	-2.773674	0.818422	0.369427
H 	0.083512	-1.925697	-0.792218
H 	0.010488	-1.340897	0.913432
