14
02/13/2019 22:15, XYZ structure generated by mol3D Class, molSimplify
C 	1.566179	-0.716912	-0.180282
C 	0.663621	0.325357	0.459774
C 	-0.089200	1.242678	-0.510438
C 	-0.767460	0.251759	0.477561
N 	-1.335090	-0.886935	-0.167899
H 	1.558562	-1.556405	0.496424
H 	2.591751	-0.296587	-0.261138
H 	1.198650	-0.964521	-1.269094
H 	1.195746	0.889750	1.237352
H 	-0.128068	2.325107	-0.258300
H 	-0.002332	0.895644	-1.571956
H 	-1.444521	0.683078	1.279324
H 	-1.722138	-1.605703	0.550294
H 	-2.204905	-0.665769	-0.697846
