9
02/13/2019 22:15, XYZ structure generated by mol3D Class, molSimplify
N 	-1.261582	-1.093051	0.100216
C 	-0.448302	0.077288	-0.027243
N 	-1.041166	1.177743	-0.009470
C 	0.984206	0.000431	-0.045376
C 	2.168583	-0.019264	0.025607
H 	-0.800522	-2.009999	-0.953687
H 	-2.237250	-0.978315	0.070794
H 	-0.358716	1.960511	-0.023640
H 	3.225382	0.287713	0.205418
