10
02/13/2019 22:15, XYZ structure generated by mol3D Class, molSimplify
C 	-1.556749	-0.589594	0.270241
O 	-0.901714	0.376281	-0.604301
N 	0.164668	0.915006	0.208882
C 	1.295316	0.209364	0.159727
O 	1.334546	-0.936338	-0.146096
H 	-2.418586	-0.894461	-0.259203
H 	-1.886469	-0.168269	1.169116
H 	-0.904447	-1.405170	0.676442
H 	0.213633	1.844049	-0.114955
H 	2.150203	0.888602	0.486054
