8
02/13/2019 22:15, XYZ structure generated by mol3D Class, molSimplify
C 	-1.076649	0.417165	0.020887
C 	0.134798	1.160169	0.000342
N 	1.026237	0.167494	0.073046
N 	0.498330	-1.054162	0.007629
N 	-0.765899	-0.927299	-0.042475
H 	-2.068584	0.865137	0.040236
H 	0.376701	2.197204	-0.270138
H 	2.056817	0.182582	-0.553612
