12
03/25/2019 10:01, XYZ structure generated by mol3D Class, molSimplify
C 	1.193362	1.359331	0.046523
N 	1.163305	-0.054074	-0.432649
C 	0.892051	-1.100189	0.568700
C 	-0.145644	-0.759207	-0.457022
C 	-1.356954	-0.023580	-0.094548
N 	-2.426656	0.382339	0.201699
H 	0.738681	2.044243	-0.702204
H 	0.555179	1.403394	0.903713
H 	2.247592	1.614040	0.296974
H 	0.726781	-0.861287	1.617667
H 	1.475779	-2.055756	0.551290
H 	-0.342918	-1.366640	-1.376670
