11
02/13/2019 22:15, XYZ structure generated by mol3D Class, molSimplify
C 	-2.387164	-0.095978	0.100391
C 	-1.021040	0.320496	-0.191444
C 	0.094224	-0.385498	-0.104984
C 	1.370278	0.313866	-0.015710
O 	2.447551	-0.196358	0.122960
H 	-2.355066	-0.427055	1.647598
H 	-3.534171	1.006638	-0.110552
H 	-2.432352	-1.203760	-0.639681
H 	-0.819182	1.464323	-0.387128
H 	0.041909	-1.509298	0.219224
H 	1.146319	1.356807	-0.159694
