10
03/25/2019 10:01, XYZ structure generated by mol3D Class, molSimplify
N 	0.588436	1.275491	0.177287
C 	0.938700	-0.021422	-0.102483
O 	2.109376	-0.498207	-0.176508
C 	-0.224124	-0.971226	0.187423
C 	-1.514239	-0.303399	-0.044437
N 	-2.437157	0.367648	-0.138399
H 	-0.341351	1.637276	0.297260
H 	1.436431	1.906389	0.205689
H 	-0.210267	-1.175854	1.467578
H 	-0.118543	-2.263094	-0.191530
