14
03/25/2019 10:01, XYZ structure generated by mol3D Class, molSimplify
C 	1.207855	1.382479	0.055233
N 	0.601355	0.079327	-0.065363
N 	1.559664	-0.959713	-0.017520
C 	-0.707816	-0.275559	0.021351
C 	-1.710526	0.894508	-0.041983
O 	-1.095749	-1.430711	0.078406
H 	2.006541	1.569243	-0.702881
H 	1.623756	1.487889	1.049739
H 	0.432963	2.189703	-0.165423
H 	1.621764	-1.322916	-1.048014
H 	1.039335	-1.799083	0.495405
H 	-1.525504	1.475318	-0.945196
H 	-1.511576	1.550589	0.777878
H 	-2.719579	0.485402	0.033729
