10
03/25/2019 10:01, XYZ structure generated by mol3D Class, molSimplify
C 	-2.137242	-1.068951	0.004051
C 	-1.453990	-0.078899	-0.008384
C 	-0.670003	1.120808	-0.002292
C 	0.673448	1.133724	-0.001132
C 	1.452509	-0.074419	0.003783
C 	2.133145	-1.073376	0.003765
H 	-2.724617	-1.955586	0.022272
H 	-1.206993	2.064804	0.015403
H 	1.221714	2.065905	0.020511
H 	2.735287	-1.941530	-0.055683
