16
03/25/2019 10:01, XYZ structure generated by mol3D Class, molSimplify
C 	2.569061	-0.175752	-0.192826
O 	1.288921	0.366777	0.232169
C 	0.257814	-0.548823	0.112223
C 	-0.992507	-0.057562	0.035421
C 	-2.162415	-1.000973	-0.072453
C 	-1.126997	1.424490	-0.099539
H 	3.496359	0.118073	0.503076
H 	2.613927	-1.227211	-0.222728
H 	2.882399	0.249608	-1.171328
H 	0.592774	-1.602645	0.262602
H 	-2.066223	-1.675968	-0.928492
H 	-2.175394	-1.548361	0.891661
H 	-3.144860	-0.418563	-0.292399
H 	-0.605895	1.815811	0.864640
H 	-2.180089	1.828756	0.084607
H 	-0.734823	1.811801	-1.090478
