10
02/13/2019 22:15, XYZ structure generated by mol3D Class, molSimplify
O 	-1.683750	-0.681981	0.007973
N 	-1.317001	0.654736	0.037114
C 	-0.047826	0.757517	-0.055230
C 	0.921253	-0.347227	-0.050795
C 	2.267097	-0.185767	0.027923
H 	-2.687911	-0.677986	0.028376
H 	0.337947	1.761872	0.020666
H 	0.578535	-1.377763	-0.039335
H 	2.881635	-1.109024	0.141190
H 	2.734544	0.778309	0.136825
