13
02/13/2019 22:15, XYZ structure generated by mol3D Class, molSimplify
C 	-1.560121	0.722973	-0.065865
C 	-0.678695	-0.306985	0.449093
O 	-0.044020	-1.084879	-0.610809
C 	0.734948	-0.420756	0.294787
C 	1.543204	0.759402	-0.063018
H 	-2.472332	0.283404	-0.554750
H 	-0.983153	1.311302	-0.807276
H 	-1.948783	1.458874	0.614062
H 	-1.159110	-1.075812	1.083709
H 	1.285522	-1.042578	1.102764
H 	1.170910	1.231478	-0.888804
H 	2.736314	0.509154	-0.060663
H 	1.600887	1.398494	0.824006
