15
02/13/2019 22:15, XYZ structure generated by mol3D Class, molSimplify
C 	1.824763	-0.266209	-0.496387
C 	0.917400	0.109481	0.718502
C 	-0.566156	0.100699	0.424384
C 	-1.242183	-1.189112	-0.215505
O 	-1.020612	1.256685	-0.399876
H 	2.832952	-0.404111	-0.086044
H 	1.809212	0.539698	-1.232993
H 	1.580266	-1.237249	-1.041165
H 	1.165305	1.165874	1.113018
H 	1.130923	-0.534041	1.622999
H 	-1.203142	0.167316	1.361328
H 	-2.328070	-0.943559	-0.330148
H 	-0.658490	-1.362952	-1.186641
H 	-0.882750	-2.070853	0.377113
H 	-0.727734	2.070873	0.083799
