15
02/13/2019 22:15, XYZ structure generated by mol3D Class, molSimplify
C 	-1.973155	-0.684882	-0.171920
C 	-1.353870	0.638289	0.255042
C 	0.112015	0.721575	-0.227247
C 	0.973193	-0.358853	0.403633
O 	2.290390	-0.301077	-0.262649
H 	-1.394297	-0.876313	-1.203115
H 	-3.148862	-0.468636	-0.360971
H 	-1.679704	-1.568811	0.506412
H 	-1.406188	0.755038	1.397146
H 	-2.048501	1.400963	-0.142171
H 	0.121733	0.644276	-1.267351
H 	0.487764	1.699819	0.158226
H 	1.036673	-0.240111	1.466816
H 	0.597701	-1.322046	0.072688
H 	2.725833	0.583900	-0.099297
