8
03/25/2019 10:02, XYZ structure generated by mol3D Class, molSimplify
O 	-1.912550	-0.091398	0.007561
C 	-0.602613	0.055891	-0.032972
N 	0.084730	1.146303	-0.021789
C 	1.358060	0.631504	0.030801
N 	1.386931	-0.682986	0.002669
O 	0.060401	-1.084541	-0.001422
H 	-2.245617	0.840071	0.212371
H 	2.272004	1.203986	-0.018284
