10
02/11/2019 18:37, XYZ structure generated by mol3D Class, molSimplify
C 	-1.308392	-0.600548	0.027583
C 	-0.024296	0.179554	0.023126
C 	1.287033	-0.618031	0.024666
O 	0.040789	1.378961	-0.052874
H 	-1.420861	-0.976272	-1.062315
H 	-2.157654	0.109953	0.304045
H 	-1.323354	-1.551790	0.694809
H 	1.771201	-0.475409	0.987004
H 	1.946959	-0.203239	-0.785263
H 	1.090619	-1.671751	-0.196601
