13
02/13/2019 22:15, XYZ structure generated by mol3D Class, molSimplify
C 	1.810060	0.777364	0.122306
C 	1.204474	-0.586572	-0.199847
N 	-0.176902	-0.745480	0.227922
N 	-1.050016	0.038900	-0.463304
C 	-2.140853	0.371953	0.101173
H 	1.821091	0.959560	1.203875
H 	2.841062	0.845067	-0.240161
H 	1.223948	1.570576	-0.352270
H 	1.782838	-1.389757	0.271817
H 	1.220654	-0.763291	-1.279669
H 	-0.290143	-0.692938	1.240797
H 	-2.394379	0.091508	1.130795
H 	-2.860696	0.948404	-0.472202
