14
03/25/2019 10:01, XYZ structure generated by mol3D Class, molSimplify
C 	1.182928	1.188352	0.636269
C 	0.645771	0.204443	-0.420555
N 	1.573526	-0.918282	-0.521249
C 	-0.770823	-0.171234	0.034534
N 	-1.775912	0.581880	-0.520596
O 	-0.991040	-1.120500	0.795545
H 	1.165481	0.703599	1.640763
H 	0.618554	2.112752	0.734033
H 	2.235701	1.379734	0.328338
H 	0.571897	0.706403	-1.404958
H 	1.550412	-1.355885	0.432761
H 	1.104510	-1.608414	-1.146377
H 	-2.703303	0.510973	-0.093300
H 	-1.523687	1.476377	-0.919379
