16
03/25/2019 10:01, XYZ structure generated by mol3D Class, molSimplify
C 	0.151559	1.583149	-0.016855
C 	-0.036386	0.112342	-0.480905
C 	1.187371	-0.843814	-0.349138
C 	2.334640	-0.650121	0.300818
C 	-1.146637	-0.402616	0.453547
C 	-2.520576	-0.119328	0.044463
H 	0.181557	1.599785	1.068660
H 	1.173801	1.918060	-0.405217
H 	-0.727620	2.256832	-0.512803
H 	-0.295317	-0.171166	-1.574522
H 	0.826140	-1.823451	-0.501086
H 	3.171701	-1.327957	0.539347
H 	2.641895	0.300402	0.636990
H 	-0.713423	-0.891010	1.478339
H 	-2.928550	0.543163	-0.976168
H 	-3.447437	-0.318916	0.687982
