12
03/25/2019 10:01, XYZ structure generated by mol3D Class, molSimplify
C 	1.179790	1.286497	0.008098
C 	0.860909	-0.182561	-0.029442
O 	1.710646	-1.046760	0.126238
C 	-0.579281	-0.601000	-0.311531
C 	-1.633238	-0.196689	0.664628
O 	-1.477732	0.435505	-0.585452
H 	0.486754	1.822556	0.702385
H 	1.094606	1.732259	-1.032403
H 	2.209977	1.402078	0.421651
H 	-0.703608	-1.499714	-0.894893
H 	-2.483041	-0.886017	0.776948
H 	-1.366499	0.389675	1.577735
