10
02/11/2019 18:37, XYZ structure generated by mol3D Class, molSimplify
C 	1.395264	-0.489312	-0.014563
N 	0.485540	0.698416	-0.058537
C 	-0.862272	0.523433	-0.045236
N 	-1.480011	-0.626635	0.065812
H 	2.445368	-0.126976	0.430987
H 	1.047931	-1.334932	0.680302
H 	1.561392	-0.988499	-1.069328
H 	1.004368	1.614187	0.581421
H 	-1.364434	1.452278	-0.132536
H 	-0.782615	-1.400817	0.120102
