10
02/11/2019 18:37, XYZ structure generated by mol3D Class, molSimplify
C 	1.749101	-0.065334	0.102080
N 	0.402811	0.345167	-0.317109
N 	-0.673470	-0.550363	0.134546
C 	-1.783995	0.090635	0.067800
H 	2.447219	0.822676	1.745215
H 	2.935529	0.476657	-1.405968
H 	1.212334	-1.887329	0.302918
H 	0.252914	1.379115	-0.542366
H 	-1.742898	1.172681	-0.217102
H 	-2.801387	-0.415239	0.631162
