11
02/13/2019 22:15, XYZ structure generated by mol3D Class, molSimplify
C 	1.847453	-0.451153	0.018470
C 	0.469865	0.157327	-0.015982
O 	0.278494	1.357155	-0.015607
C 	-0.725860	-0.781043	-0.034148
O 	-1.922834	-0.073204	0.040157
H 	1.910186	-1.333371	-0.627178
H 	2.068946	-0.776380	1.041839
H 	2.588628	0.292171	-0.280300
H 	-0.667235	-1.382514	-0.956718
H 	-0.630833	-1.487813	0.805648
H 	-1.665099	0.864826	0.012299
