9
02/13/2019 22:15, XYZ structure generated by mol3D Class, molSimplify
O 	2.103761	0.052276	0.114200
C 	0.985927	0.005775	-0.337904
C 	-0.227828	-0.029873	0.495811
C 	-1.419144	0.646476	-0.138131
O 	-1.264048	-0.764195	-0.075313
H 	0.798237	-0.103563	-1.428144
H 	-0.132057	-0.016850	1.592614
H 	-2.149393	1.109470	0.527087
H 	-1.305553	1.099518	-1.161554
