14
03/25/2019 10:02, XYZ structure generated by mol3D Class, molSimplify
C 	2.586570	-0.434157	-0.429956
C 	1.414703	-0.129649	0.677786
O 	0.511951	0.609879	-0.155548
C 	-0.760325	0.768592	0.258294
C 	-1.533561	-0.401878	-0.243329
O 	-2.830904	-0.426437	-0.146642
H 	2.094888	-1.517953	-1.261384
H 	3.727180	-0.354239	0.480407
H 	2.715720	0.732890	-1.542196
H 	0.834709	-1.082860	1.276174
H 	1.927486	0.651500	1.590214
H 	-0.806233	0.965050	1.399010
H 	-1.174775	1.750795	-0.158900
H 	-0.734605	-1.128135	-0.893491
