18
03/25/2019 10:01, XYZ structure generated by mol3D Class, molSimplify
C 	-2.864183	0.627683	0.202622
C 	-1.927950	-0.488924	-0.321662
C 	-0.620155	-0.246822	0.231220
C 	0.514467	-0.363507	-0.408087
C 	1.903131	-0.422282	0.336790
C 	2.971081	0.636656	-0.096652
H 	-2.513182	1.670572	-0.014619
H 	-3.916253	0.510274	-0.036457
H 	-2.776597	0.489736	1.453345
H 	-2.227556	-1.502032	0.115190
H 	-2.007576	-0.597107	-1.435876
H 	-0.758908	0.052831	1.352881
H 	0.517470	-0.466249	-1.472663
H 	1.693259	-0.459003	1.449137
H 	2.458248	-1.384474	0.120536
H 	3.899410	0.782697	0.483059
H 	2.463091	1.739968	-0.181850
H 	3.449696	0.367154	-1.168637
