14
03/25/2019 10:01, XYZ structure generated by mol3D Class, molSimplify
C 	2.916905	-0.390448	-0.114555
C 	1.652489	0.442610	0.076095
C 	0.412538	-0.185561	0.149802
C 	-0.765750	0.716244	0.083011
N 	-2.047061	0.536674	-0.152255
N 	-2.440361	-0.762420	-0.082481
H 	3.306727	-0.037705	-1.186101
H 	3.595886	0.023715	0.690971
H 	2.792384	-1.511181	0.039972
H 	1.793356	1.525124	0.234121
H 	0.318519	-1.204140	-0.029799
H 	-0.498450	1.710365	-0.030910
H 	-1.693940	-1.390895	0.323548
H 	-3.351291	-0.884863	0.237132
