12
03/25/2019 10:01, XYZ structure generated by mol3D Class, molSimplify
O 	1.495970	-1.172896	0.173878
C 	1.206415	0.045990	-0.436770
C 	0.894785	1.166743	0.469779
C 	-0.214106	0.589018	-0.397128
C 	-1.265452	-0.208854	0.275723
O 	-2.416377	-0.253926	-0.095234
H 	1.241051	-1.878362	-0.434594
H 	1.771679	0.261580	-1.343758
H 	1.254012	2.163140	0.234272
H 	0.854991	0.925990	1.529587
H 	-0.562310	1.165410	-1.249452
H 	-0.926914	-0.779764	1.165522
