9
02/11/2019 18:17, XYZ structure generated by mol3D Class, molSimplify
C 	-1.154997	-0.496885	0.002639
C 	-0.014522	0.469921	0.035608
C 	1.303099	0.195735	-0.009948
H 	-1.167224	-1.012578	-1.007402
H 	-0.958671	-1.504674	0.687039
H 	-2.205160	-0.088734	0.142915
H 	-0.116373	1.548361	-0.345877
H 	1.481762	-0.931180	0.340587
H 	2.256903	0.728624	-0.154216
