13
02/13/2019 22:15, XYZ structure generated by mol3D Class, molSimplify
C 	-1.853951	-0.074965	-0.056305
O 	-0.595342	-0.776940	-0.001026
C 	0.533639	-0.111223	-0.013779
C 	0.524189	1.337637	0.044023
C 	1.706200	-0.723290	0.009522
H 	-1.952554	0.340083	-1.152032
H 	-2.659018	-0.792978	0.309158
H 	-1.893109	0.834793	0.655189
H 	0.528248	1.756751	1.256109
H 	-0.650549	1.785262	-0.460542
H 	1.534946	1.744493	-0.495926
H 	2.614172	-0.131119	-0.089442
H 	1.778354	-1.761356	0.190726
