10
02/11/2019 18:17, XYZ structure generated by mol3D Class, molSimplify
C 	0.004209	-0.248948	1.252538
N 	-0.079033	0.563598	-0.031457
C 	0.001541	-0.192830	-1.202528
H 	0.654792	-1.107246	1.280133
H 	-1.034356	-0.576134	1.357936
H 	0.236819	0.606270	2.021714
H 	0.753536	1.133258	-0.115259
H 	0.041885	0.524655	-2.069335
H 	-0.968213	-0.746787	-1.485398
H 	0.838053	-0.983959	-1.148174
