17
03/25/2019 10:02, XYZ structure generated by mol3D Class, molSimplify
C 	-2.310476	0.068569	-0.018608
C 	-0.712622	0.131015	0.435756
C 	0.071471	1.227374	-0.375334
C 	1.645600	0.468720	0.401231
N 	1.421431	-0.702312	-0.559928
C 	0.066091	-1.211183	0.055778
H 	-2.343602	0.051197	-1.172492
H 	-2.751834	1.081537	0.312205
H 	-3.108794	-0.571827	0.551655
H 	-0.719949	0.276209	1.651734
H 	-0.554891	2.760622	-0.236301
H 	0.047494	0.826181	-2.003736
H 	2.850643	1.199639	0.127333
H 	1.515904	0.281451	1.886498
H 	2.171060	-1.378187	-0.367147
H 	0.202494	-1.750141	1.106337
H 	-0.587174	-1.910619	-0.522808
