11
02/11/2019 18:17, XYZ structure generated by mol3D Class, molSimplify
C 	-0.007996	1.265812	-0.239067
C 	-0.013780	-0.011446	0.557329
C 	0.030447	-1.272697	-0.238330
H 	-1.057057	1.438050	-0.731838
H 	0.272571	2.154330	0.403617
H 	0.731497	1.203071	-1.097026
H 	0.786774	0.095865	1.222046
H 	-0.915598	0.088006	1.183885
H 	-0.105132	-2.133057	0.352782
H 	0.927538	-1.441658	-0.854325
H 	-0.743832	-1.186345	-1.025850
