10
02/13/2019 22:15, XYZ structure generated by mol3D Class, molSimplify
O 	1.444026	-0.935039	0.106765
C 	1.152369	0.362588	-0.375591
C 	-0.074455	0.960135	0.249785
C 	-1.223028	0.066705	0.005728
N 	-2.161475	-0.623133	-0.102731
H 	1.701136	-0.813432	1.043434
H 	1.043847	0.311952	-1.446547
H 	1.956286	1.080269	-0.198722
H 	-0.321901	1.953610	-0.103319
H 	0.021617	1.016593	1.356264
