17
03/25/2019 10:01, XYZ structure generated by mol3D Class, molSimplify
C 	-2.717387	0.530374	0.413626
C 	-1.809932	-0.380223	-0.422063
C 	-0.360842	-0.034784	-0.362147
C 	0.549762	-0.804241	0.185786
C 	2.037715	-0.458939	0.245972
N 	2.316915	0.907670	-0.228100
H 	-2.568188	1.634627	0.204798
H 	-3.781100	0.244236	0.182299
H 	-2.549652	0.367181	1.492300
H 	-1.906175	-1.408572	0.006594
H 	-2.116226	-0.380592	-1.485105
H 	-0.001961	0.878088	-0.846199
H 	0.231297	-1.735474	0.708337
H 	2.620497	-1.115745	-0.404413
H 	2.479511	-0.654353	1.254083
H 	1.868410	1.627956	0.356618
H 	3.337181	1.021308	-0.189335
