8
02/13/2019 22:15, XYZ structure generated by mol3D Class, molSimplify
C 	-2.503294	0.041234	0.005202
C 	-1.038046	-0.045001	0.021328
C 	0.175412	-0.039237	-0.010984
C 	1.595135	-0.049654	-0.080027
N 	2.747638	0.064386	0.053744
H 	-2.791649	1.045536	-0.397162
H 	-2.976247	-0.773431	-0.609047
H 	-2.859225	-0.063367	1.027299
