14
02/13/2019 22:15, XYZ structure generated by mol3D Class, molSimplify
C 	1.874669	0.035447	0.252459
C 	0.497219	-0.015470	-0.487662
C 	-0.563508	-1.033411	-0.065740
N 	-1.528080	-0.013183	0.131935
C 	-0.505547	1.032889	-0.024713
H 	1.812676	0.077068	1.380104
H 	2.369104	-0.931246	0.097064
H 	2.492477	0.888568	-0.139145
H 	0.570921	-0.076943	-1.533259
H 	-0.782263	-1.786012	-0.799463
H 	-0.410065	-1.709455	0.875933
H 	-2.169174	0.097647	0.902950
H 	-0.261172	1.599020	0.933971
H 	-0.906887	1.792868	-0.825045
