11
02/13/2019 22:15, XYZ structure generated by mol3D Class, molSimplify
N 	-1.497928	-0.733076	-0.302563
C 	-0.972967	0.375444	0.507183
C 	0.204218	1.083174	-0.046350
N 	1.299635	0.420333	-0.353969
O 	1.288038	-0.899147	0.115356
H 	-1.859496	-0.298117	-1.140734
H 	-0.754952	-1.315446	-0.614140
H 	-1.845258	1.112266	0.565223
H 	-0.763852	0.027397	1.529965
H 	0.310249	2.052478	-0.439186
H 	0.874356	-0.779537	1.149879
