9
02/13/2019 22:15, XYZ structure generated by mol3D Class, molSimplify
C 	1.384931	-1.025066	-0.007288
C 	0.421462	0.209654	-0.081491
O 	0.908808	1.291752	-0.017562
C 	-1.006967	-0.081615	-0.032077
C 	-2.259620	-0.126066	0.076649
H 	1.269862	-1.386680	1.522257
H 	2.808060	-0.719705	-0.261052
H 	0.893506	-2.043162	-0.726165
H 	-3.340211	0.099024	0.270088
