16
03/25/2019 10:01, XYZ structure generated by mol3D Class, molSimplify
C 	-1.571700	-1.097499	-0.442648
C 	-1.092174	-0.121758	0.596631
C 	0.130231	0.737862	0.114555
C 	-0.177758	2.030567	-0.104394
C 	1.426197	0.057912	-0.141772
C 	1.667404	-1.289008	0.021560
H 	-2.309403	-1.726845	-0.018728
H 	-0.746864	-1.764501	-0.740139
H 	-2.048786	-0.738951	-1.392043
H 	-1.800013	0.588236	0.950407
H 	-0.691552	-0.780660	1.357455
H 	0.641104	2.773197	-0.336039
H 	-1.152575	2.464630	0.118773
H 	2.254056	0.791914	-0.461127
H 	2.729328	-1.614812	0.010092
H 	0.926629	-1.970313	0.408798
