11
02/13/2019 22:15, XYZ structure generated by mol3D Class, molSimplify
C 	1.694735	-0.710598	0.208050
N 	1.088146	0.407791	-0.457328
C 	-0.088656	0.928253	0.322760
C 	-1.289598	0.015345	0.152509
N 	-2.212619	-0.605104	-0.241571
H 	1.944757	-0.572568	1.280107
H 	1.004862	-1.608498	0.209534
H 	2.518944	-1.006106	-0.406443
H 	0.762967	0.135597	-1.452413
H 	-0.454388	1.882425	-0.148411
H 	0.326269	1.065442	1.418301
