14
02/13/2019 22:15, XYZ structure generated by mol3D Class, molSimplify
N 	-1.900044	-0.152474	-0.027742
C 	-0.478355	0.058757	0.309634
C 	0.451678	-1.072073	-0.119972
C 	1.577537	0.008448	0.032157
C 	0.513177	1.102571	-0.136959
H 	-2.206707	-0.297355	-1.061836
H 	-2.547802	0.569167	0.361852
H 	-0.394467	0.047005	1.440947
H 	0.348332	-2.040333	0.435563
H 	0.303026	-1.231487	-1.201851
H 	2.378640	0.054638	-0.588248
H 	1.775894	-0.098501	1.194827
H 	0.466329	1.281964	-1.243085
H 	0.510274	2.015044	0.506801
