8
02/13/2019 22:15, XYZ structure generated by mol3D Class, molSimplify
C 	-2.043715	-0.101854	-0.190573
N 	-0.816446	-0.466263	0.235162
O 	-0.122055	0.720119	0.112427
C 	1.300866	0.381580	-0.059590
O 	1.802983	-0.702241	-0.081850
H 	-2.728963	-0.954906	-0.123160
H 	-2.214564	1.028343	-0.536024
H 	1.767670	1.413062	-0.114890
