10
02/13/2019 22:15, XYZ structure generated by mol3D Class, molSimplify
C 	-1.852901	-0.101129	-0.036307
O 	-0.545719	-0.721551	0.046490
C 	0.494646	0.136276	0.015649
N 	1.673567	-0.542651	-0.039643
O 	0.386972	1.348320	0.022518
H 	-2.567788	-0.917228	0.047856
H 	-1.983352	0.406999	-1.029365
H 	-1.979086	0.663618	0.750645
H 	1.655955	-1.541821	-0.067982
H 	2.543184	-0.042747	0.000413
