14
02/13/2019 22:15, XYZ structure generated by mol3D Class, molSimplify
C 	2.543101	-0.220219	0.025458
C 	1.238812	0.403493	-0.181686
C 	0.003781	-0.183189	0.133525
C 	-1.319545	0.581431	0.033770
N 	-2.427864	-0.418192	-0.082139
H 	2.226236	-1.767509	-0.217298
H 	3.679308	0.472809	-1.033335
H 	2.979654	0.128456	1.710928
H 	1.392771	1.511286	-0.548382
H 	-0.024057	-1.341277	0.432385
H 	-1.567346	1.207366	0.961611
H 	-1.284107	1.302731	-0.760643
H 	-3.066262	-0.608592	1.121417
H 	-2.256277	-1.422698	-0.695346
