10
02/11/2019 18:37, XYZ structure generated by mol3D Class, molSimplify
O 	-1.297608	-0.593706	0.053319
C 	-0.662197	0.605572	-0.295665
C 	0.724934	0.594010	0.264955
O 	1.343043	-0.597157	-0.140265
H 	-1.412397	-0.676419	1.030205
H 	-0.747997	0.646029	-1.361110
H 	-1.196982	1.459737	0.146373
H 	0.583721	0.677093	1.348355
H 	1.356171	1.461824	0.004521
H 	0.632190	-1.244810	-0.307676
