11
02/13/2019 22:15, XYZ structure generated by mol3D Class, molSimplify
C 	-2.425979	-0.162427	-0.001407
C 	-1.037041	0.390346	0.000384
C 	0.088057	-0.328305	0.003939
C 	1.404165	0.333231	0.001041
O 	2.463602	-0.252193	-0.002301
H 	-2.983426	0.183805	0.877667
H 	-2.976734	0.183278	-0.886104
H 	-2.420608	-1.255046	-0.002579
H 	-0.949403	1.479597	0.001591
H 	0.082734	-1.416554	0.001491
H 	1.362762	1.446650	-0.002674
