14
02/13/2019 22:15, XYZ structure generated by mol3D Class, molSimplify
C 	-0.635637	1.428281	0.107207
C 	-0.464064	-0.017171	-0.342994
N 	-1.685115	-0.768013	-0.059600
C 	0.782345	-0.646852	0.289265
O 	1.980872	0.039714	-0.021647
H 	-0.827895	1.469445	1.187427
H 	-1.481733	1.891779	-0.409137
H 	0.274564	2.000328	-0.089142
H 	-0.330095	-0.028405	-1.436139
H 	-1.863629	-0.761821	0.941864
H 	-1.571616	-1.743536	-0.326316
H 	0.845617	-1.709787	-0.003160
H 	0.689708	-0.611931	1.381187
H 	2.117841	-0.033432	-0.973975
