13
02/11/2019 18:37, XYZ structure generated by mol3D Class, molSimplify
C 	1.894306	-0.160968	-0.020450
C 	0.527731	0.554936	0.013945
C 	-0.577738	-0.470435	0.048422
N 	-1.867108	0.135290	-0.134841
H 	2.730862	0.564722	-0.192758
H 	1.936892	-0.915577	-0.811553
H 	2.110695	-0.637799	1.002498
H 	0.385622	1.146299	-0.890124
H 	0.388469	1.231154	0.860068
H 	-0.497769	-1.099295	0.959412
H 	-0.452938	-1.159953	-0.822146
H 	-1.969158	1.003931	0.482358
H 	-2.655949	-0.508845	0.113725
