11
02/11/2019 18:17, XYZ structure generated by mol3D Class, molSimplify
C 	-0.096864	1.246186	-0.302654
C 	0.124933	-0.038961	0.650899
C 	0.010104	-1.234585	-0.267097
H 	-1.097017	1.156862	-0.746049
H 	0.072078	2.137294	0.352454
H 	0.673847	1.302983	-1.089602
H 	0.903911	0.211665	1.315472
H 	-0.755768	-0.018915	1.294500
H 	-0.996427	-2.162566	0.296752
H 	1.219714	-1.803936	-0.432898
H 	-0.474853	-0.497620	-1.551808
