13
02/13/2019 22:15, XYZ structure generated by mol3D Class, molSimplify
C 	2.092872	-0.565480	-0.018031
C 	1.198374	0.607760	-0.120900
C 	-0.110508	0.653295	0.048549
C 	-1.041480	-0.436549	0.143541
C 	-2.395027	-0.095925	-0.061357
H 	2.289774	-0.876809	-1.200615
H 	3.151571	-0.157396	0.552347
H 	1.558006	-1.417518	0.656844
H 	1.850551	1.500318	-0.066762
H 	-0.599562	1.698578	0.339960
H 	-0.770203	-1.490851	0.309286
H 	-2.779231	0.921962	-0.372977
H 	-3.095388	-0.864148	-0.120472
