14
02/13/2019 22:15, XYZ structure generated by mol3D Class, molSimplify
C 	-0.788941	1.077296	-0.179490
C 	0.767802	1.052883	0.067320
C 	1.213499	-0.465746	0.098288
N 	-0.030152	-1.308755	-0.135621
C 	-1.152649	-0.444007	0.234187
H 	-1.109348	1.207572	-1.313975
H 	-1.476174	1.750000	0.424493
H 	1.129514	1.545499	1.032459
H 	1.270023	1.443598	-0.803959
H 	1.788714	-0.790743	1.059322
H 	1.902652	-0.666509	-0.860530
H 	-0.069376	-1.394668	-1.117207
H 	-2.050328	-0.855500	-0.327859
H 	-1.439413	-0.543730	1.226376
