16
02/13/2019 22:15, XYZ structure generated by mol3D Class, molSimplify
C 	1.771422	0.028777	-0.548921
C 	0.882186	-0.086093	0.706594
C 	-0.664338	-0.044788	0.444488
C 	-1.084538	1.263429	-0.135123
N 	-0.888154	-1.157953	-0.399969
H 	2.850453	0.164743	-0.198226
H 	1.493662	0.919401	-1.183318
H 	1.590448	-0.900251	-1.133551
H 	1.101051	-1.074530	1.176885
H 	1.072126	0.675878	1.414379
H 	-1.187057	-0.241694	1.398608
H 	-0.635114	1.327863	-1.141049
H 	-0.900413	2.112642	0.526796
H 	-2.191957	1.301291	-0.327283
H 	-0.522115	-1.999542	0.059229
H 	-1.921322	-1.346076	-0.595393
