14
02/13/2019 22:15, XYZ structure generated by mol3D Class, molSimplify
C 	1.642046	-0.896305	0.075071
N 	1.316123	0.458073	-0.260659
C 	-0.012119	0.869846	0.302265
C 	-1.240719	0.300505	-0.440493
C 	-2.059886	-0.584296	0.123660
H 	1.809020	-0.917944	1.166056
H 	0.791983	-1.638120	-0.132435
H 	2.477705	-1.170647	-0.554202
H 	1.994122	1.062768	0.173577
H 	-0.087100	0.560396	1.355865
H 	0.005427	1.956663	0.297148
H 	-1.363976	0.727650	-1.500329
H 	-2.984981	-0.878632	-0.355628
H 	-1.852738	-0.984180	1.169016
