10
02/13/2019 22:15, XYZ structure generated by mol3D Class, molSimplify
O 	0.298308	1.824646	0.027005
C 	0.147049	0.628452	-0.007821
C 	-0.025577	-0.412192	1.051973
N 	-0.179702	-1.384297	0.037327
C 	-0.045525	-0.426621	-1.101869
H 	0.736788	-0.674127	1.839020
H 	-0.997504	-0.129227	1.484506
H 	-0.997084	-2.014862	0.038275
H 	-0.993429	-0.270755	-1.714826
H 	0.703544	-0.583273	-1.906968
