16
02/13/2019 22:15, XYZ structure generated by mol3D Class, molSimplify
C 	0.481748	1.407611	0.079462
C 	0.485025	-0.045440	-0.387205
C 	1.715398	-0.757002	0.050773
C 	-0.742702	-0.679047	0.221476
N 	-1.928530	0.025722	-0.142990
H 	0.449252	1.310473	1.203579
H 	1.501260	1.966335	-0.121604
H 	-0.382138	1.918365	-0.320246
H 	0.268746	-0.113931	-1.461202
H 	1.741790	-0.859649	1.146915
H 	1.836034	-1.740925	-0.467233
H 	2.627382	-0.220077	-0.242101
H 	-0.571113	-0.662869	1.343836
H 	-0.849358	-1.711950	-0.197099
H 	-2.780576	-0.510197	-0.078331
H 	-2.078732	0.855903	0.424765
