10
03/25/2019 10:02, XYZ structure generated by mol3D Class, molSimplify
O 	-2.013537	-0.077923	0.000901
C 	-0.671915	0.075321	-0.002023
C 	0.170898	1.162998	-0.000471
C 	1.460584	0.578858	0.000820
N 	1.421937	-0.741416	0.001143
N 	0.100518	-1.028070	-0.001300
H 	-2.414752	0.798601	0.007083
H 	-0.095645	2.210463	-0.000562
H 	2.419008	1.082307	-0.001593
H 	-0.212850	-1.985386	0.002873
