11
02/13/2019 22:15, XYZ structure generated by mol3D Class, molSimplify
O 	1.866642	0.011330	-0.170569
C 	0.523432	-0.032295	0.334726
C 	-0.481607	0.998194	-0.280399
O 	-1.638559	0.000655	0.223223
C 	-0.523630	-1.021151	-0.194362
H 	2.967145	-0.228126	1.048280
H 	0.301375	-0.017001	1.450094
H 	-0.714534	2.223685	0.009388
H 	-0.359893	0.986304	-1.491336
H 	-0.586764	-2.091932	0.197623
H 	-0.434385	-0.989702	-1.411566
