13
02/13/2019 22:15, XYZ structure generated by mol3D Class, molSimplify
C 	-1.904881	0.541862	0.109741
C 	-0.784976	-0.818182	-0.033963
C 	0.605791	-0.264672	-0.063111
C 	0.723758	1.261217	-0.287655
O 	1.723602	-1.070078	0.189321
H 	-1.996136	1.267155	1.704078
H 	-2.811262	-0.377650	-0.226123
H 	-1.753025	2.012893	-1.122858
H 	-1.102670	-1.744343	-0.875559
H 	-0.698019	-1.620561	1.168065
H 	1.847640	1.564488	-0.059748
H 	0.424745	1.565153	-1.312879
H 	0.008932	1.781252	0.451138
