13
03/25/2019 10:01, XYZ structure generated by mol3D Class, molSimplify
C 	2.165586	-0.102139	-0.372170
C 	0.919327	0.009710	0.472161
C 	-0.086909	1.124697	0.091767
C 	-1.131321	-0.023957	-0.055678
O 	-2.314965	-0.067887	-0.242930
N 	-0.116335	-0.960598	0.151711
H 	2.763930	0.820919	-0.241189
H 	1.851157	-0.137447	-1.446075
H 	2.781723	-0.970768	-0.163398
H 	1.148788	0.046822	1.553687
H 	-0.385554	1.810692	0.867477
H 	0.153144	1.635302	-0.841149
H 	-0.195427	-1.962410	0.299002
