12
02/11/2019 18:37, XYZ structure generated by mol3D Class, molSimplify
N 	1.921946	-0.011129	0.063431
C 	0.576940	0.453403	-0.095212
C 	-0.558225	-0.516691	-0.024212
N 	-1.867494	0.200412	-0.050029
H 	2.083025	-0.538987	0.913864
H 	2.203218	-0.543388	-0.759346
H 	0.508246	0.958082	-1.050462
H 	0.342817	1.261368	0.650939
H 	-0.479966	-1.098711	0.890080
H 	-0.556679	-1.309506	-0.831917
H 	-2.664429	-0.456736	0.003015
H 	-1.916889	0.833821	0.759323
