13
02/13/2019 22:15, XYZ structure generated by mol3D Class, molSimplify
C 	-1.875355	-0.329041	0.366984
O 	-0.950650	-0.059403	-0.672918
C 	-0.011464	0.877559	-0.197640
C 	1.183825	0.255752	0.549720
O 	1.809131	-0.711522	-0.220070
H 	-2.367011	-1.323472	0.027500
H 	-1.368997	-0.409344	1.383009
H 	-2.681133	0.495275	0.397932
H 	0.276150	1.438850	-1.117253
H 	-0.458738	1.637919	0.437591
H 	0.839866	-0.163633	1.542756
H 	1.980960	0.994007	0.845525
H 	1.104870	-1.337788	-0.569847
