12
02/13/2019 22:15, XYZ structure generated by mol3D Class, molSimplify
N 	1.855224	-0.382851	0.111119
C 	0.536667	-0.100003	-0.395482
C 	-0.071357	1.186727	0.072355
C 	-0.646813	-0.075466	0.503964
O 	-1.771527	-0.406987	-0.237454
H 	2.619342	-0.338108	-0.872558
H 	1.818994	-1.501153	0.493666
H 	0.311957	-0.489437	-1.454158
H 	-0.592137	1.901525	-0.616950
H 	0.630479	1.749600	0.784044
H 	-0.777472	-0.212942	1.606496
H 	-2.000323	-1.456492	0.514991
