11
02/13/2019 22:15, XYZ structure generated by mol3D Class, molSimplify
C 	1.915892	0.089762	0.209062
C 	0.696983	-0.741756	-0.210932
C 	-0.555921	0.102984	-0.017962
O 	-1.657707	-0.658711	0.205440
O 	-0.595313	1.316960	-0.207030
H 	2.819892	-0.596224	-0.412050
H 	1.994378	0.061651	1.534226
H 	1.786218	1.359158	-0.203543
H 	0.858834	-1.013603	-1.335905
H 	0.613148	-1.800641	0.395957
H 	-2.405530	-0.050941	0.282693
