11
02/13/2019 22:15, XYZ structure generated by mol3D Class, molSimplify
C 	-1.731456	-0.553095	-0.085791
C 	-0.389175	0.121234	0.058042
O 	-0.355980	1.352102	0.051595
C 	0.800359	-0.709334	0.108030
C 	1.917257	-0.052202	-0.096093
H 	-2.190946	-0.743560	-1.162840
H 	-2.541835	0.093013	0.516797
H 	-1.584412	-1.638344	0.464459
H 	0.719050	-1.765050	-0.120463
H 	1.922410	1.007974	-0.081069
H 	2.825382	-0.620466	-0.247487
