17
03/25/2019 10:02, XYZ structure generated by mol3D Class, molSimplify
N 	2.909020	-0.302013	0.195127
C 	1.524991	-0.401152	-0.273545
C 	0.704279	0.790878	0.216310
C 	-0.748904	0.759915	-0.241526
C 	-1.545277	-0.433896	0.272216
O 	-2.907144	-0.403686	-0.129108
H 	3.367877	0.474988	-0.267090
H 	3.402609	-1.144104	-0.092102
H 	1.105064	-1.324808	0.124329
H 	1.417273	-0.483500	-1.367493
H 	0.767675	0.835095	1.312532
H 	1.155671	1.729558	-0.142964
H 	-0.806252	0.744302	-1.339489
H 	-1.248559	1.677314	0.109666
H 	-1.155220	-1.360909	-0.152106
H 	-1.447549	-0.510805	1.370841
H 	-3.291889	0.408769	0.238059
