13
02/13/2019 22:15, XYZ structure generated by mol3D Class, molSimplify
C 	1.778870	-0.039566	0.309631
C 	0.484643	0.107554	-0.432315
C 	-0.599937	1.039231	-0.112947
C 	-1.399484	-0.159558	0.332056
O 	-0.418258	-1.053538	-0.185628
H 	1.596804	0.042482	1.372828
H 	2.483716	0.781942	0.029985
H 	2.346313	-0.975119	0.042562
H 	0.794239	-0.005287	-1.550574
H 	-0.338977	1.668712	0.726265
H 	-1.016519	1.631215	-0.899943
H 	-1.554921	-0.204995	1.519373
H 	-2.490499	-0.261834	-0.078340
