10
03/25/2019 10:01, XYZ structure generated by mol3D Class, molSimplify
N 	0.717120	1.308013	0.006523
C 	0.976591	-0.021330	0.000393
O 	2.091841	-0.499610	-0.009658
C 	-0.245063	-0.958155	0.008398
C 	-1.545161	-0.287618	0.003392
N 	-2.547206	0.289900	-0.009338
H 	-0.220817	1.682144	0.003360
H 	1.503531	1.940838	0.009338
H 	-0.166551	-1.594487	0.896335
H 	-0.164194	-1.617772	-0.861431
