8
02/11/2019 18:37, XYZ structure generated by mol3D Class, molSimplify
C 	1.449834	-0.471350	-0.000497
C 	0.669601	0.607483	0.000483
C 	-0.809367	0.466924	-0.000565
O 	-1.386597	-0.598494	0.000592
H 	2.533828	-0.403299	0.003679
H 	0.999745	-1.460738	-0.004908
H 	1.078750	1.616457	0.002819
H 	-1.381908	1.417988	-0.004214
