16
03/25/2019 10:01, XYZ structure generated by mol3D Class, molSimplify
C 	-2.435892	0.173225	-0.016888
C 	-1.117684	-0.505317	-0.371773
C 	0.046275	-0.117002	0.565806
C 	1.268432	-0.887608	0.185513
O 	1.835552	0.230662	-0.475492
C 	0.846259	1.106098	0.121642
H 	-2.811809	-0.108003	0.982982
H 	-3.250080	-0.129227	-0.719047
H 	-2.259126	1.287172	0.075104
H 	-1.050741	-1.517445	-0.042942
H 	-0.781718	-0.361404	-1.423742
H 	-0.361168	-0.087638	1.632507
H 	1.183417	-1.777336	-0.581693
H 	1.788114	-1.327961	0.955813
H 	0.124852	1.868782	-0.581096
H 	1.198787	1.734794	1.053969
