10
02/13/2019 22:15, XYZ structure generated by mol3D Class, molSimplify
C 	-2.244921	-0.132895	-0.001510
C 	-0.932199	-0.347690	0.001248
N 	0.034392	0.662688	0.001711
C 	1.379208	0.400534	-0.000326
O 	1.866563	-0.708731	-0.000705
H 	-2.933995	-0.968855	-0.000831
H 	-2.671416	0.868286	-0.004764
H 	-0.494426	-1.340807	0.006019
H 	-0.268791	1.625258	0.000621
H 	1.983312	1.326931	-0.006624
