13
02/13/2019 22:15, XYZ structure generated by mol3D Class, molSimplify
C 	1.841099	0.407722	0.175896
C 	0.997661	-0.574551	-0.096650
C 	-0.376270	-0.405311	-0.569417
C 	-1.340412	-0.420422	0.558646
C 	-1.050504	0.886266	-0.173341
H 	1.530409	1.429428	0.226259
H 	2.783217	0.225288	0.634045
H 	1.361270	-1.585758	-0.033945
H 	-0.796010	-0.894341	-1.513563
H 	-0.683238	-0.544779	1.466753
H 	-2.337061	-0.904953	0.457490
H 	-1.700280	1.320818	-0.907077
H 	-0.487916	1.611054	0.443015
