11
02/13/2019 22:15, XYZ structure generated by mol3D Class, molSimplify
C 	-2.631642	-0.172252	-0.003496
C 	-1.187702	0.107753	0.006042
C 	0.011261	0.268696	-0.021019
C 	1.421860	0.542204	0.056061
O 	2.249072	-0.595415	-0.120956
H 	-2.821692	-1.208159	-0.369352
H 	-3.095034	-0.074300	1.007225
H 	-3.143559	0.554384	-0.693670
H 	1.657471	1.011946	1.028389
H 	1.685278	1.221954	-0.756596
H 	2.020331	-1.221436	0.595597
