13
02/13/2019 22:15, XYZ structure generated by mol3D Class, molSimplify
N 	-1.650877	-0.753273	-0.175750
C 	-0.826922	0.259930	0.388685
C 	0.068763	1.216282	-0.433729
C 	0.719183	0.159188	0.397652
N 	1.655906	-0.800583	-0.213186
H 	-1.719272	-1.662851	0.209953
H 	-2.542067	-0.320551	-0.494966
H 	-1.158534	0.752390	1.305653
H 	-0.052062	2.207849	-0.116320
H 	0.107642	1.223787	-1.572955
H 	1.017676	0.575836	1.342207
H 	2.292058	0.080417	-0.891539
H 	2.448759	-1.287988	0.670724
