8
02/11/2019 18:37, XYZ structure generated by mol3D Class, molSimplify
C 	1.476876	-0.458203	0.152704
C 	0.686041	0.569081	-0.270315
C 	-0.842522	0.468953	0.255046
O 	-1.408569	-0.585111	-0.165471
H 	2.568330	-0.266842	-0.168679
H 	1.117942	-1.465209	0.622963
H 	1.178300	1.570063	-0.456639
H 	-1.408409	1.396549	0.991964
