15
02/13/2019 22:15, XYZ structure generated by mol3D Class, molSimplify
C 	2.115987	0.250539	0.089912
C 	0.883490	-0.554639	-0.261051
C 	-0.360914	-0.079043	0.447146
C 	-1.254266	0.883541	-0.215601
C 	-1.701276	-0.535829	-0.005575
H 	3.026295	-0.153632	-0.412261
H 	2.302771	0.246009	1.179919
H 	2.060959	1.302122	-0.274125
H 	0.754422	-0.583237	-1.373541
H 	0.995150	-1.628132	0.005230
H 	-0.255270	0.054368	1.508591
H 	-1.025886	1.227893	-1.260315
H 	-1.720272	1.647787	0.409211
H 	-2.474473	-0.736972	0.729303
H 	-1.727095	-1.280286	-0.819033
