13
02/11/2019 18:37, XYZ structure generated by mol3D Class, molSimplify
C 	-1.158294	-0.851649	0.126773
C 	0.032207	-0.029023	-0.376797
C 	1.419609	-0.449984	0.103357
N 	-0.220736	1.383186	-0.007889
H 	-2.099017	-0.244447	-0.074823
H 	-1.030231	-1.040225	1.270062
H 	-1.140054	-1.795204	-0.394950
H 	-0.026465	0.097704	-1.469960
H 	2.302338	0.404099	0.134694
H 	1.776869	-1.267981	-0.627855
H 	1.228741	-0.855450	1.237406
H 	0.165586	1.575817	1.050228
H 	-1.279897	1.647046	0.046586
