17
03/25/2019 10:02, XYZ structure generated by mol3D Class, molSimplify
N 	2.916397	-0.277740	0.171450
C 	1.528629	-0.419260	-0.259767
C 	0.703810	0.766328	0.234235
C 	-0.748885	0.754776	-0.243490
C 	-1.558278	-0.428838	0.281422
O 	-2.908096	-0.392763	-0.141777
H 	3.340344	0.516233	-0.302403
H 	3.453758	-1.093539	-0.106429
H 	1.141468	-1.349579	0.175769
H 	1.406250	-0.511685	-1.355424
H 	0.748279	0.788143	1.330762
H 	1.182961	1.692509	-0.110626
H 	-0.792813	0.746684	-1.340583
H 	-1.240045	1.683566	0.082821
H 	-1.159438	-1.371310	-0.105824
H 	-1.484844	-0.472814	1.381894
H 	-3.299747	0.415979	0.210552
