11
02/13/2019 22:15, XYZ structure generated by mol3D Class, molSimplify
C 	-0.717003	1.378899	0.077387
N 	-0.339894	-0.022870	-0.224004
O 	-1.385841	-0.847723	0.150346
C 	0.819645	-0.560113	0.063643
N 	1.915034	0.050026	-0.092431
H 	0.150149	1.916524	-0.156042
H 	-1.510927	1.732577	-0.585385
H 	-1.099646	1.448894	1.179482
H 	-1.641914	-1.250972	-0.731574
H 	0.777743	-1.674976	0.449348
H 	2.664034	-0.661212	0.179169
