11
02/13/2019 22:15, XYZ structure generated by mol3D Class, molSimplify
C 	1.556854	-0.792489	-0.047273
N 	0.352734	-0.019875	0.145315
N 	0.342871	1.374583	0.019299
C 	-0.870247	-0.596884	-0.000909
O 	-1.952285	0.013709	-0.064186
H 	2.007556	-0.608482	-1.052391
H 	2.222574	-0.498995	0.737790
H 	1.355571	-1.839211	0.049622
H 	0.480329	1.689303	-1.011602
H 	1.315085	1.706466	0.562303
H 	-0.785065	-1.711111	0.019407
