10
02/13/2019 22:15, XYZ structure generated by mol3D Class, molSimplify
C 	-2.080688	-0.272833	-0.360809
C 	-1.058733	-0.146197	0.504907
C 	0.103028	0.741356	0.144346
C 	1.319494	0.025868	-0.089198
N 	2.332440	-0.484011	-0.193651
H 	-2.145252	0.307651	-1.285469
H 	-2.807967	-1.034755	-0.165111
H 	-1.032414	-0.770332	1.419079
H 	0.319032	1.439987	0.901188
H 	-0.295079	1.268536	-0.741647
