12
03/25/2019 10:02, XYZ structure generated by mol3D Class, molSimplify
C 	-0.864072	1.602405	0.001763
C 	0.067071	0.447390	0.000112
N 	-0.508369	-0.861654	0.152010
O 	-1.898114	-0.950286	-0.189729
N 	1.338535	0.601850	-0.056185
O 	2.090949	-0.674262	0.082140
H 	-1.306658	1.581675	1.061887
H 	-1.796296	1.618256	-0.675554
H 	-0.199965	2.458174	-0.194698
H 	0.064746	-1.526912	-0.298128
H 	-2.251981	-1.272557	0.667054
H 	2.910892	-0.385520	-0.453680
