14
02/13/2019 22:15, XYZ structure generated by mol3D Class, molSimplify
C 	1.886236	-0.000603	0.178634
C 	0.500039	0.000504	-0.436125
C 	-0.530424	-1.043966	0.039192
N 	-1.570375	-0.000054	-0.013292
C 	-0.531529	1.044186	0.039068
H 	1.828984	0.000257	1.274127
H 	2.455574	-0.886434	-0.126832
H 	2.457330	0.883447	-0.127694
H 	0.559514	0.000663	-1.529463
H 	-0.719350	-1.913167	-0.601641
H 	-0.296362	-1.396367	1.056866
H 	-2.219498	-0.000180	0.766861
H 	-0.297871	1.398093	1.057021
H 	-0.720885	1.912996	-0.601750
