11
02/11/2019 18:37, XYZ structure generated by mol3D Class, molSimplify
N 	-1.457385	-0.005108	-0.247739
C 	-0.206129	0.012302	0.485722
C 	0.921878	0.751873	-0.134210
C 	0.915025	-0.750415	-0.139305
H 	-1.965634	-0.835558	0.028389
H 	-2.028302	0.802197	0.004453
H 	-0.244361	-0.024427	1.580517
H 	0.724634	1.243499	-1.071388
H 	1.648207	1.253485	0.501530
H 	1.608980	-1.285403	0.503599
H 	0.686714	-1.246674	-1.079760
