10
02/13/2019 22:15, XYZ structure generated by mol3D Class, molSimplify
N 	-1.883438	0.058995	0.000116
N 	-0.658271	-0.583247	0.000116
C 	0.512855	0.155058	0.000043
N 	1.640442	-0.636185	0.000225
O 	0.565075	1.366574	-0.000139
H 	-2.414639	-0.175101	0.830837
H 	-2.413838	-0.172860	-0.831692
H 	-0.617842	-1.593236	-0.002045
H 	1.632727	-1.641336	-0.000114
H 	2.524443	-0.157751	-0.001669
