15
03/25/2019 10:01, XYZ structure generated by mol3D Class, molSimplify
C 	-0.927209	1.281800	-0.652842
C 	-0.328594	0.001129	0.009980
C 	-0.851247	-1.264188	-0.677709
N 	-0.753240	0.023388	1.413938
C 	1.162512	-0.008410	-0.112590
C 	2.385437	-0.052554	-0.007662
H 	-0.566908	1.454159	-1.697058
H 	-0.585018	2.161148	-0.019589
H 	-2.056764	1.151902	-0.724316
H 	-0.441942	-2.145315	-0.180537
H 	-0.423290	-1.278866	-1.695424
H 	-1.958549	-1.352000	-0.656454
H 	-0.291661	-0.714037	1.920235
H 	-0.467739	0.916021	1.845081
H 	3.428987	-0.015303	0.007522
