14
03/25/2019 10:01, XYZ structure generated by mol3D Class, molSimplify
C 	-1.898585	-1.036830	0.100944
O 	-1.208197	0.172988	-0.360919
C 	0.057267	0.515495	0.269145
C 	0.609696	1.914167	-0.023501
C 	1.086452	-0.510992	0.030196
C 	2.002887	-1.329275	-0.103806
H 	-2.245209	-1.545994	-1.213872
H 	-3.092473	-0.472550	0.947063
H 	-0.826749	-1.782966	0.949139
H 	-0.061905	0.541702	1.298061
H 	1.655692	2.023906	0.503072
H 	-0.137722	2.608186	0.523447
H 	0.550385	2.039051	-1.141666
H 	2.727216	-2.012840	-0.408880
