11
02/13/2019 22:15, XYZ structure generated by mol3D Class, molSimplify
C 	1.636387	-0.775260	0.164999
N 	1.125504	0.479725	-0.365722
C 	-0.110770	0.921651	0.253608
C 	-1.267126	0.033549	0.028035
N 	-2.195080	-0.637266	-0.123223
H 	1.996669	-0.597191	1.201301
H 	0.879458	-1.622480	0.213505
H 	2.480628	-1.093332	-0.436291
H 	1.020110	0.389357	-1.388078
H 	-0.353807	1.919648	-0.125455
H 	0.008078	0.979444	1.336584
