17
03/25/2019 10:01, XYZ structure generated by mol3D Class, molSimplify
C 	1.984972	0.527203	0.194721
N 	1.145259	-0.425063	-0.522143
C 	0.101359	-0.865122	0.291550
C 	-1.257123	-1.080457	-0.274610
C 	-1.076560	0.122582	0.515489
C 	-1.197423	1.446012	-0.215828
H 	2.217327	0.331605	1.407245
H 	1.500718	1.602563	0.027785
H 	2.978449	0.673361	-0.396707
H 	1.783481	-1.193763	-0.917573
H 	0.296967	-1.591950	1.141273
H 	-1.330920	-0.973280	-1.330357
H 	-1.872955	-1.880312	0.281950
H 	-1.250826	0.156263	1.625943
H 	-0.633849	2.122211	0.522097
H 	-2.297067	1.617457	-0.319614
H 	-0.748929	1.363992	-1.285312
