14
03/25/2019 10:02, XYZ structure generated by mol3D Class, molSimplify
C 	2.704061	-0.346543	-0.206060
C 	1.367578	-0.209521	0.483540
O 	0.529905	0.566768	-0.288149
C 	-0.759212	0.825586	0.202560
C 	-1.662589	-0.282914	-0.276329
O 	-2.803205	-0.501754	0.043033
H 	2.640243	-1.047224	-1.095596
H 	3.510868	-0.754989	0.486308
H 	3.082681	0.718162	-0.623939
H 	0.949438	-1.232440	0.456148
H 	1.495759	0.185053	1.476767
H 	-0.966622	0.970712	1.278301
H 	-1.040004	1.774394	-0.293810
H 	-1.127319	-0.904388	-0.996648
