14
02/13/2019 22:15, XYZ structure generated by mol3D Class, molSimplify
C 	1.838563	-0.031490	0.184196
C 	0.462579	0.014688	-0.453339
C 	-0.493894	-1.057692	0.010030
N 	-1.509522	-0.015887	-0.041412
C 	-0.521571	1.103285	0.107097
H 	1.648106	0.563737	1.258667
H 	2.292490	-1.104091	0.182135
H 	2.429368	0.654369	-0.502223
H 	0.448044	-0.052853	-1.536579
H 	-0.730011	-1.984021	-0.511143
H 	-0.231212	-1.332302	1.049394
H 	-2.281759	-0.210316	0.661717
H 	-0.159332	1.446811	1.107797
H 	-0.753638	1.896599	-0.475608
