12
02/11/2019 18:37, XYZ structure generated by mol3D Class, molSimplify
C 	-0.889662	1.220331	0.002264
C 	0.382275	0.423267	0.035023
C 	0.293189	-0.953854	0.733452
C 	0.382632	-0.808305	-0.777834
H 	-0.467896	2.482064	0.350107
H 	-1.786517	0.582382	0.856802
H 	-1.389463	1.296731	-1.316408
H 	1.392647	0.931881	0.170265
H 	1.149974	-1.411495	1.274760
H 	-0.710598	-0.952096	1.354776
H 	1.342718	-1.131021	-1.208887
H 	-0.585928	-1.054086	-1.396931
