10
02/13/2019 22:15, XYZ structure generated by mol3D Class, molSimplify
C 	1.166236	-0.012129	0.484571
C 	0.328084	1.182185	-0.392503
C 	-1.046520	0.556486	0.323837
N 	-1.054034	-0.733112	0.181065
O 	0.269403	-1.210276	-0.538856
H 	2.767560	-0.258083	0.283614
H 	0.786968	-0.177676	2.027906
H 	0.330597	1.119590	-1.794474
H 	0.600039	2.585238	-0.093804
H 	-1.957719	1.230710	0.660904
