11
02/13/2019 22:15, XYZ structure generated by mol3D Class, molSimplify
C 	1.576745	-0.769094	-0.272229
N 	0.347171	0.024789	0.460710
N 	0.439138	1.412012	0.119182
C 	-0.949605	-0.625127	0.184114
O 	-2.001802	-0.038298	-0.348679
H 	1.479858	-1.259751	-1.877992
H 	2.951666	-0.023849	-0.010960
H 	1.384944	-1.783898	0.787567
H 	0.153322	1.576289	-1.190771
H 	1.756334	1.748666	0.433444
H 	-0.896425	-1.777013	0.384413
