12
03/25/2019 10:01, XYZ structure generated by mol3D Class, molSimplify
N 	2.101310	-0.426250	0.208641
C 	0.835271	0.153568	-0.065987
N 	0.660316	1.388333	-0.225441
N 	-0.180522	-0.854610	-0.219690
N 	-1.553010	-0.650465	-0.249808
C 	-2.057091	0.374667	0.384533
H 	2.749764	0.264693	0.355382
H 	2.044659	-0.905159	1.174133
H 	-0.244292	1.651856	-0.668586
H 	0.090707	-1.827118	-0.500861
H 	-1.322026	0.944252	0.973849
H 	-3.103208	0.520689	0.401624
