12
02/13/2019 22:15, XYZ structure generated by mol3D Class, molSimplify
C 	-0.975707	1.287730	0.123059
C 	-0.369127	-0.027199	-0.319291
C 	-1.055209	-1.285613	0.161739
C 	1.098559	-0.106245	-0.037922
N 	2.243391	0.117573	0.046683
H 	-1.853601	1.020868	1.300807
H 	-1.907699	1.579973	-1.015313
H 	-0.077857	2.202003	0.400434
H 	-0.414165	-0.107419	-1.394787
H 	-2.140597	-1.159615	-0.100852
H 	-0.689028	-2.174481	-0.428819
H 	-1.123920	-1.431234	1.251273
