8
02/11/2019 18:17, XYZ structure generated by mol3D Class, molSimplify
C 	0.049769	-0.366820	0.725863
C 	0.041596	-0.367675	-0.721951
N 	0.038610	0.835543	0.004107
H 	0.908973	-0.741518	1.313932
H 	-0.968564	-0.601518	1.105087
H 	-0.842615	-0.815379	-1.083584
H 	0.938421	-0.590114	-1.432984
H 	-0.945353	1.211718	-0.006095
