11
02/13/2019 22:15, XYZ structure generated by mol3D Class, molSimplify
C 	-0.000613	1.215404	0.001089
C 	1.177189	0.280639	-0.000535
C 	0.736320	-0.988736	0.000497
C 	-0.735859	-0.987481	0.001333
C 	-1.177268	0.279998	-0.002230
H 	-0.001399	1.874783	0.882590
H 	0.000648	1.876001	-0.877754
H 	2.212752	0.605984	-0.006710
H 	1.350529	-1.883558	-0.000081
H 	-1.350693	-1.883721	-0.003503
H 	-2.209081	0.611283	0.003623
