11
02/13/2019 22:15, XYZ structure generated by mol3D Class, molSimplify
C 	1.841709	-0.076830	0.045553
O 	0.572056	-0.699049	-0.065969
C 	-0.493033	0.112738	-0.020499
N 	-1.636848	-0.633965	0.039398
N 	-0.343001	1.375016	-0.009153
H 	2.074259	0.465450	-0.874691
H 	1.911516	0.552740	0.928376
H 	2.539718	-0.930530	0.099736
H 	-1.529041	-1.623686	0.141861
H 	-2.540107	-0.210606	-0.072276
H 	-1.212353	1.882405	0.105370
