16
03/25/2019 10:02, XYZ structure generated by mol3D Class, molSimplify
C 	1.772888	-0.150617	-0.482598
C 	0.824996	-0.067448	0.692073
C 	-0.411964	0.810866	0.640571
N 	-0.808725	1.536811	-0.531823
C 	-0.541473	-0.697855	0.651450
N 	-0.961568	-1.452161	-0.497611
H 	1.299828	0.177194	-1.416602
H 	2.639701	0.503009	-0.322630
H 	2.147072	-1.169862	-0.635513
H 	1.320051	-0.115293	1.660280
H 	-0.671531	1.319457	1.566598
H 	-0.065099	2.138322	-0.868706
H 	-1.048346	0.898366	-1.284334
H 	-0.891844	-1.132188	1.586599
H 	-0.312217	-1.391896	-1.272202
H 	-1.883850	-1.182816	-0.822429
