13
02/13/2019 22:15, XYZ structure generated by mol3D Class, molSimplify
C 	-2.463563	-0.063478	-0.029448
C 	-0.939688	-0.365575	0.080076
C 	-0.075753	0.664162	-0.009039
C 	1.421985	0.494966	0.037312
O 	2.041170	-0.709803	0.022507
H 	-2.884495	-0.130948	0.985213
H 	-2.522914	0.951573	-0.388393
H 	-3.075686	-0.679847	-0.757478
H 	-0.756222	-1.374348	0.357581
H 	-0.355938	1.661181	-0.243968
H 	1.715750	1.032098	0.987506
H 	1.821976	1.186055	-0.688017
H 	2.013756	-1.120362	-0.919203
