15
02/13/2019 22:15, XYZ structure generated by mol3D Class, molSimplify
C 	2.489534	-0.262813	-0.042309
C 	1.184075	0.554875	0.015444
C 	-0.024919	-0.409223	0.130976
O 	-1.188848	0.483976	0.045732
C 	-2.449248	-0.162790	-0.121360
H 	2.888928	-0.590236	1.088001
H 	2.167466	-1.108197	-0.836213
H 	3.381438	0.381850	-0.576443
H 	1.097409	1.274493	0.830766
H 	1.056840	1.100083	-0.978640
H 	-0.096073	-1.105618	-0.722608
H 	-0.026287	-1.004081	1.055000
H 	-2.503318	-0.515658	-1.220390
H 	-3.216911	0.626208	0.250416
H 	-2.505852	-1.122363	0.589695
