13
03/25/2019 10:01, XYZ structure generated by mol3D Class, molSimplify
C 	0.858053	1.418246	0.159589
C 	0.788807	-0.014437	-0.348596
O 	2.010341	-0.703575	-0.167467
C 	-0.346694	-0.819398	0.315363
C 	-1.671509	-0.252523	0.049256
N 	-2.700681	0.223356	-0.177941
H 	-0.072807	1.957805	-0.043886
H 	1.026282	1.435856	1.245343
H 	1.682178	1.947654	-0.326190
H 	0.617640	-0.013304	-1.429434
H 	2.302751	-0.554479	0.741980
H 	-0.191940	-0.852563	1.401255
H 	-0.315766	-1.848202	-0.054424
