13
02/13/2019 22:15, XYZ structure generated by mol3D Class, molSimplify
C 	1.297254	-0.979608	-0.281541
C 	0.570454	0.124950	0.478200
O 	0.684411	1.368588	-0.187253
C 	-0.904704	-0.196246	0.684531
O 	-1.495150	-0.211384	-0.610456
H 	1.295551	-1.918399	0.283605
H 	0.810364	-1.160266	-1.245614
H 	2.332745	-0.682552	-0.464976
H 	1.033241	0.262529	1.462657
H 	0.066554	1.311502	-0.932278
H 	-1.027041	-1.166705	1.188156
H 	-1.356109	0.586774	1.310176
H 	-2.452353	-0.180164	-0.511405
