16
02/13/2019 22:15, XYZ structure generated by mol3D Class, molSimplify
C 	-2.024531	0.159818	0.107867
C 	-0.674916	-0.789939	0.031519
N 	0.492804	-0.094623	-0.406768
C 	1.740848	-0.733345	0.171138
C 	0.482763	1.351581	-0.120226
H 	-2.278911	0.626059	1.724569
H 	-2.818812	-0.897558	-0.300517
H 	-1.924036	1.478426	-0.923986
H 	-0.334444	-1.196304	1.183406
H 	-0.849730	-1.712266	-0.571590
H 	2.559041	-0.180209	-0.189314
H 	1.774048	-1.781119	-0.145524
H 	1.747300	-0.632805	1.316726
H 	-0.269968	2.072611	-0.696339
H 	1.559351	1.636700	-0.277683
H 	0.113632	1.667434	1.037636
