16
03/25/2019 10:01, XYZ structure generated by mol3D Class, molSimplify
C 	0.549172	1.694453	-0.114692
C 	-0.043449	0.306119	-0.364523
C 	1.007400	-0.783362	-0.606150
C 	1.989892	-0.701970	0.470295
C 	-1.207272	-0.160592	0.498384
C 	-2.396475	-0.645529	0.102615
H 	0.577942	1.839521	1.090689
H 	1.597295	1.730052	-0.643815
H 	-0.050289	2.528159	-0.619956
H 	-0.491835	0.314530	-1.331225
H 	0.938588	-1.556378	-1.886576
H 	2.814925	-1.516690	0.302767
H 	2.142786	0.069132	1.679199
H 	-1.052817	-0.103258	1.624103
H 	-2.639312	-0.591649	-1.023286
H 	-3.112697	-0.979020	0.844784
