12
02/13/2019 22:15, XYZ structure generated by mol3D Class, molSimplify
C 	2.380574	0.224415	0.032420
N 	1.129208	-0.497745	0.097423
C 	0.073087	0.167269	-0.121198
N 	-1.167274	-0.434245	-0.177924
N 	-2.270602	0.384552	0.091527
H 	3.007989	-0.190862	-0.765020
H 	2.929704	0.098154	0.972399
H 	2.259359	1.304562	-0.153783
H 	0.026458	1.247748	-0.317221
H 	-1.173738	-1.383678	0.182080
H 	-3.036204	0.116344	-0.516494
H 	-2.573903	0.290311	1.058067
