8
02/13/2019 22:15, XYZ structure generated by mol3D Class, molSimplify
N 	-1.526525	-0.690028	0.005131
C 	-0.461162	0.155904	-0.003863
O 	-0.538499	1.363993	-0.001025
C 	0.890296	-0.577544	-0.007129
O 	1.931090	0.016192	0.005484
H 	-2.455856	-0.296334	0.002823
H 	-1.425402	-1.692914	-0.001855
H 	0.854843	-1.691156	-0.012516
