12
02/11/2019 18:37, XYZ structure generated by mol3D Class, molSimplify
C 	-0.742727	0.764240	0.095352
C 	-0.766963	-0.784275	-0.079259
C 	0.763515	-0.775858	0.054005
C 	0.759013	0.811947	-0.082565
H 	-1.158112	1.171143	0.992445
H 	-1.306105	1.380040	-0.718901
H 	-1.171031	-1.164008	-0.998747
H 	-1.234895	-1.365265	0.740676
H 	1.332765	-1.466410	-0.636545
H 	0.977786	-1.159740	1.087973
H 	1.187750	1.290953	0.730081
H 	1.218986	1.122131	-1.048552
