11
02/13/2019 22:15, XYZ structure generated by mol3D Class, molSimplify
N 	-1.790620	-0.603216	-0.109812
N 	-1.334985	0.686513	0.035496
C 	-0.084319	0.828581	0.046148
C 	0.812951	-0.377737	-0.036084
O 	2.230935	-0.185442	0.066220
H 	-2.793439	-0.588262	0.028775
H 	-1.437412	-1.322965	0.589035
H 	0.355538	1.866049	0.006502
H 	0.557233	-1.022633	0.851022
H 	0.502895	-0.975623	-0.976715
H 	2.432189	0.322029	-0.788925
