9
02/13/2019 22:15, XYZ structure generated by mol3D Class, molSimplify
N 	-1.684545	-0.451263	0.004466
C 	-0.468452	0.095693	0.038226
O 	-0.218769	1.300314	0.027900
N 	0.588049	-0.800227	-0.073084
O 	1.802918	-0.042732	-0.036055
H 	-1.747342	-1.440298	-0.213785
H 	-2.520600	0.102732	-0.080892
H 	0.600102	-1.426812	0.780539
H 	1.386310	0.927939	-0.171930
