10
02/13/2019 22:15, XYZ structure generated by mol3D Class, molSimplify
C 	1.793674	-0.446584	0.047440
C 	0.426910	0.163040	-0.040518
O 	0.206698	1.359618	-0.019046
N 	-0.606430	-0.723507	-0.148204
O 	-1.871584	-0.192856	0.066918
H 	2.221042	-0.246574	1.042119
H 	2.448974	0.064506	-0.698652
H 	1.788289	-1.523738	-0.132908
H 	-0.566842	-1.618279	0.309783
H 	-1.679375	0.769439	0.182804
