16
02/13/2019 22:15, XYZ structure generated by mol3D Class, molSimplify
C 	1.714382	0.098357	-0.490009
N 	0.866676	0.028468	0.739734
C 	-0.564206	-0.033535	0.481355
C 	-0.945808	1.230462	-0.212414
C 	-1.098751	-1.246874	-0.275239
H 	2.786463	0.298377	-0.134487
H 	1.692376	-0.754671	-1.161181
H 	1.400506	0.925504	-1.184770
H 	1.213977	-0.902091	1.173699
H 	-0.998193	0.041298	1.516871
H 	-0.420217	1.333508	-1.203633
H 	-2.057656	1.242296	-0.348128
H 	-0.643871	2.087902	0.490810
H 	-1.014019	-2.206714	0.397987
H 	-0.344389	-1.441136	-1.171023
H 	-2.146592	-1.071332	-0.632193
