9
02/11/2019 18:37, XYZ structure generated by mol3D Class, molSimplify
C 	-1.305452	-0.372351	-0.019264
C 	0.095411	0.153499	-0.029394
N 	0.977359	-0.820883	0.087186
O 	0.354841	1.352755	-0.080991
H 	-1.454481	-1.430591	-0.900304
H 	-2.258306	0.900027	-0.206575
H 	-1.497771	-0.780422	1.455168
H 	0.780955	-1.870768	-0.004599
H 	1.968503	-0.677222	0.309663
