11
02/11/2019 18:37, XYZ structure generated by mol3D Class, molSimplify
C 	-1.509800	-0.044459	-0.160837
C 	-0.127692	-0.044598	0.537610
C 	1.024344	-0.659001	-0.149333
N 	0.882884	0.810628	-0.045712
H 	-1.353570	-0.143372	-1.259660
H 	-2.155084	-0.882456	0.115591
H 	-2.043845	0.857752	0.028493
H 	-0.224081	0.002407	1.615579
H 	0.867322	-1.155201	-1.115183
H 	1.857147	-1.030166	0.404710
H 	0.530160	1.225177	-0.886901
