13
03/25/2019 10:01, XYZ structure generated by mol3D Class, molSimplify
N 	1.177536	1.351781	0.144185
C 	1.186458	0.010713	-0.364352
C 	0.964894	-1.044260	0.560299
C 	-0.113693	-0.688695	-0.341608
C 	-1.403912	-0.053310	-0.114737
C 	-2.552224	0.241768	0.117620
H 	2.061146	1.429535	0.697156
H 	1.189302	2.033991	-0.590782
H 	1.860808	-0.225739	-1.252010
H 	0.804232	-0.870120	1.556983
H 	1.243774	-2.082207	0.245808
H 	-0.266376	-1.372125	-1.190335
H 	-3.627643	0.527535	0.247977
