12
02/11/2019 18:37, XYZ structure generated by mol3D Class, molSimplify
C 	-0.884756	1.275863	-0.000341
C 	0.348824	0.403581	0.000214
C 	0.348578	-0.896484	0.752179
C 	0.348478	-0.896024	-0.752102
H 	-0.919269	1.918132	0.887283
H 	-1.793453	0.661438	-0.001470
H 	-0.918439	1.919928	-0.886303
H 	1.291346	0.948832	-0.000182
H 	1.256321	-1.200080	1.266125
H 	-0.568932	-1.184639	1.260881
H 	1.254759	-1.201540	-1.267023
H 	-0.570359	-1.183155	-1.258709
