12
02/13/2019 22:15, XYZ structure generated by mol3D Class, molSimplify
C 	2.377412	0.173975	0.150085
N 	1.070864	-0.470597	0.064449
C 	0.082368	0.263329	-0.366228
N 	-1.109096	-0.401960	-0.320711
N 	-2.287441	0.336412	0.315781
H 	3.504938	-0.962514	0.105517
H 	2.206810	0.608341	1.566698
H 	2.379014	1.149183	-0.968404
H 	0.090520	1.263103	-0.692811
H 	-0.960426	-1.326401	0.218185
H 	-3.124652	0.088884	-0.185699
H 	-2.493130	-0.038127	1.259245
