16
03/25/2019 10:02, XYZ structure generated by mol3D Class, molSimplify
C 	2.376348	0.280742	0.697664
C 	1.670287	-0.379583	-0.468016
N 	0.242224	-0.533509	-0.415719
N 	-0.422312	0.681064	-0.431034
C 	-1.642541	0.702254	-0.096149
C 	-2.433619	-0.484930	0.379112
H 	3.418115	0.487469	0.345333
H 	1.874550	1.221487	1.057779
H 	2.498297	-0.378669	1.646345
H 	1.908067	0.239539	-1.374896
H 	2.049554	-1.380637	-0.697877
H 	-0.064232	-1.187737	0.333232
H 	-2.188199	1.618183	-0.155000
H 	-1.976303	-1.499704	-0.042698
H 	-3.598456	-0.351719	-0.032966
H 	-2.443090	-0.587687	1.616881
