14
02/13/2019 22:15, XYZ structure generated by mol3D Class, molSimplify
C 	1.185454	-1.062435	-0.288471
C 	0.575011	0.032408	0.475612
O 	0.767205	1.353094	-0.180582
C 	-0.940502	-0.051308	0.666918
N 	-1.615694	-0.309618	-0.571501
H 	2.312829	-0.811687	-0.169606
H 	1.007640	-2.203148	0.038217
H 	0.869639	-0.868210	-1.389839
H 	1.034012	0.173715	1.454486
H 	1.625652	1.089849	-0.907697
H 	-1.291754	-0.715825	1.434642
H 	-1.243914	0.983212	1.037965
H 	-2.674209	-0.095916	-0.298523
H 	-1.498863	0.552411	-1.136103
