11
03/25/2019 10:01, XYZ structure generated by mol3D Class, molSimplify
N 	-2.761463	0.569698	-0.113876
C 	-1.868870	-0.561584	-0.187560
C 	-0.421769	-0.310527	0.255379
C 	0.750028	-0.016022	0.355503
C 	2.202066	0.062750	0.068751
C 	3.396751	0.089923	-0.284848
H 	-2.142271	1.680661	-0.510919
H 	-3.188102	0.815106	1.135238
H 	-1.860004	-1.012949	-1.304929
H 	-2.548631	-1.325193	0.420809
H 	4.509366	0.153563	-0.625230
