9
02/11/2019 18:17, XYZ structure generated by mol3D Class, molSimplify
C 	0.011167	-0.841744	-0.009520
C 	0.740341	0.354477	0.017374
C 	-0.750264	0.476807	-0.025078
H 	-0.225512	-1.440673	0.894305
H 	0.004388	-1.410777	-0.930902
H 	1.227925	0.427408	-0.900560
H 	1.117207	0.801393	0.923778
H 	-0.817788	0.855358	1.106517
H 	-1.321060	0.891924	-0.888052
