9
02/13/2019 22:15, XYZ structure generated by mol3D Class, molSimplify
C 	-1.172320	0.010454	0.071116
O 	-0.309350	1.117801	-0.039855
C 	0.997443	0.661724	-0.010279
C 	0.990266	-0.674785	0.043202
O 	-0.291078	-1.125993	-0.081060
H 	-1.792216	0.028066	1.015167
H 	-1.979434	0.095387	-0.719867
H 	1.744844	1.435603	0.051933
H 	1.838739	-1.398011	0.333002
