9
02/13/2019 22:15, XYZ structure generated by mol3D Class, molSimplify
O 	1.825030	0.007199	-0.097814
C 	0.629892	0.038838	0.069646
C 	-0.496463	1.043569	0.042616
C 	-1.382206	-0.167634	-0.090250
O 	-0.250160	-1.033878	0.092300
H 	-0.479909	1.787627	-0.734121
H 	-0.714935	1.547521	1.003188
H 	-2.230194	-0.290148	0.659708
H 	-1.752332	-0.314214	-1.103351
