12
03/25/2019 10:02, XYZ structure generated by mol3D Class, molSimplify
C 	-0.878639	1.619275	0.020078
C 	0.064179	0.420569	0.027467
N 	-0.462100	-0.823082	0.247134
O 	-1.759746	-0.942674	-0.233255
N 	1.290340	0.572869	-0.096835
O 	1.967469	-0.701588	0.013723
H 	-1.593171	1.562302	0.909380
H 	-1.450844	1.512892	-0.938067
H 	-0.403988	2.620723	0.190746
H 	0.156582	-1.539947	-0.151497
H 	-2.211174	-0.970961	0.654348
H 	2.921703	-0.413782	-0.082049
