14
02/13/2019 22:15, XYZ structure generated by mol3D Class, molSimplify
C 	-1.100236	-1.172760	0.000332
C 	-0.135500	0.006938	-0.031931
C 	-0.785055	1.370711	-0.067467
C 	1.201962	-0.157781	-0.650864
N 	1.044281	-0.188200	0.810431
H 	-0.554968	-2.124843	0.036665
H 	-1.727712	-1.116494	0.908281
H 	-1.753626	-1.196761	-0.870392
H 	-1.398178	1.552366	0.819485
H 	-0.018976	2.151053	-0.134126
H 	-1.440730	1.436874	-0.934504
H 	1.501073	-1.098797	-1.090925
H 	1.676721	0.707982	-1.100316
H 	1.348045	0.692873	1.236523
