13
02/13/2019 22:15, XYZ structure generated by mol3D Class, molSimplify
C 	2.074590	0.544193	-0.340522
C 	1.171248	-0.685414	0.189979
C 	-0.104858	-0.101651	0.635042
N 	-1.087299	-0.317581	-0.163129
N 	-2.258064	0.248817	-0.217138
H 	3.086834	0.233360	-1.049459
H 	2.388329	1.165105	0.576117
H 	1.439991	1.151232	-1.105227
H 	0.881365	-1.382203	-0.628608
H 	1.705112	-1.125316	0.963168
H 	-0.124998	0.588724	1.410938
H 	-2.357450	1.135947	0.373102
H 	-2.594298	0.236429	-1.214045
