9
02/11/2019 18:37, XYZ structure generated by mol3D Class, molSimplify
C 	-1.659835	0.131285	-0.106900
N 	-0.400504	-0.437287	0.230945
C 	0.667561	0.339099	0.078349
O 	1.819866	-0.073970	-0.143921
H 	-1.385945	1.043155	-0.831658
H 	-2.141911	0.549781	0.863961
H 	-2.353363	-0.761955	-0.819982
H 	-0.237044	-1.376594	0.126373
H 	0.577010	1.424064	0.076558
