15
02/13/2019 22:15, XYZ structure generated by mol3D Class, molSimplify
C 	-2.085575	-0.655863	-0.153985
C 	-1.305516	0.603700	0.262049
C 	0.094058	0.695900	-0.309366
C 	1.001164	-0.349675	0.294481
O 	2.359429	-0.269351	-0.126987
H 	-2.212785	-0.681456	-1.280970
H 	-3.102386	-0.608421	0.288190
H 	-1.573289	-1.592275	0.115325
H 	-1.211362	0.562890	1.374485
H 	-1.918854	1.475415	0.005388
H 	0.094496	0.557662	-1.403331
H 	0.531494	1.694772	-0.098522
H 	0.925319	-0.364320	1.414077
H 	0.675549	-1.358626	-0.023743
H 	2.631870	0.681685	-0.035108
