10
02/13/2019 22:15, XYZ structure generated by mol3D Class, molSimplify
C 	-2.306564	-0.167757	-0.237760
C 	-1.076655	-0.266956	0.397686
C 	0.114498	0.621654	0.019351
C 	1.427800	0.066545	-0.043345
N 	2.446617	-0.417146	-0.115563
H 	-2.271908	0.654949	-1.018470
H 	-3.165375	-0.743759	-0.106254
H 	-0.693138	-1.070957	1.139748
H 	0.235155	1.438047	0.761027
H 	-0.176106	1.131437	-0.979120
