16
03/25/2019 10:01, XYZ structure generated by mol3D Class, molSimplify
N 	-1.728906	-0.994764	0.088520
C 	-0.279178	-1.303164	0.112045
C 	0.651175	-0.166766	-0.329222
O 	2.009339	-0.527452	-0.141191
C 	0.351469	1.197728	0.357570
N 	-0.836638	1.920884	-0.105748
H 	-2.146747	-1.857323	0.508404
H 	-2.140134	-0.891597	-0.926265
H 	-0.006186	-1.479630	1.173324
H 	-0.030988	-2.220950	-0.465274
H 	0.473351	-0.068016	-1.378561
H 	2.193816	-0.435079	0.830496
H 	0.291848	0.944258	1.479984
H 	1.193752	1.846573	0.172592
H 	-1.645132	1.302976	0.066229
H 	-0.731140	2.177849	-1.120452
