8
02/11/2019 18:37, XYZ structure generated by mol3D Class, molSimplify
C 	-1.381665	-0.169026	-0.011456
C 	0.085967	0.140248	-0.027021
O 	0.726677	-0.976605	0.025986
O 	0.701675	1.171448	-0.007985
H 	-1.640696	-0.879835	0.727613
H 	-1.871829	-0.607269	-0.922943
H 	-1.921519	0.801485	0.318019
H 	1.683058	-0.764149	0.049777
