10
02/11/2019 18:37, XYZ structure generated by mol3D Class, molSimplify
C 	1.427591	-0.454341	0.000610
N 	0.508876	0.657452	-0.002580
C 	-0.849607	0.488330	0.001576
N 	-1.520351	-0.596802	0.000269
H 	2.450901	-0.074001	0.009047
H 	1.291941	-1.085920	0.888089
H 	1.302191	-1.082674	-0.891067
H 	0.872809	1.594322	0.001990
H 	-1.398464	1.434193	0.003001
H 	-0.906834	-1.414468	-0.004981
