13
02/13/2019 22:15, XYZ structure generated by mol3D Class, molSimplify
C 	1.857513	-0.620372	-0.003206
O 	1.324596	0.691168	-0.038186
C 	-0.067481	0.695068	0.034554
C 	-0.830021	-0.364860	0.008228
C 	-2.259310	-0.161709	-0.006881
H 	1.848485	-1.123609	-1.087327
H 	1.334710	-1.251068	0.752834
H 	2.969595	-0.524062	0.396767
H 	-0.381790	1.768192	0.354088
H 	-0.545692	-1.393140	-0.266018
H 	-2.630501	0.078905	-1.029254
H 	-2.818557	-1.133954	0.413431
H 	-2.551189	0.740390	0.682204
