9
02/13/2019 22:15, XYZ structure generated by mol3D Class, molSimplify
C 	1.101672	-0.259128	0.062680
C 	0.639937	0.974429	-0.010279
N 	-0.758516	0.786516	-0.023203
C 	-0.964285	-0.536985	0.007510
N 	0.126821	-1.214795	-0.039217
H 	2.151372	-0.566559	-0.097504
H 	1.053881	1.942993	-0.072727
H 	-1.563033	1.457873	0.147426
H 	-1.922151	-0.945162	0.176732
