10
02/11/2019 18:37, XYZ structure generated by mol3D Class, molSimplify
C 	1.780148	-0.406089	0.222649
C 	0.670421	0.307826	0.184771
C 	-0.617914	-0.245928	-0.072594
C 	-1.811938	0.346094	-0.351770
H 	2.711892	0.171279	0.367596
H 	1.836980	-1.452789	0.082796
H 	0.588105	1.414953	0.381057
H 	-0.675965	-1.420522	0.109351
H 	-1.935858	1.422610	-0.367956
H 	-2.771832	-0.158180	-0.371091
