8
02/11/2019 18:07, XYZ structure generated by mol3D Class, molSimplify
C 	0.800196	0.027797	-0.018017
C 	-0.789869	-0.030332	0.007062
H 	1.236162	0.922077	-0.088590
H 	1.047193	-0.189389	0.980757
H 	1.200486	-0.892481	-0.782947
H 	-1.285863	0.743155	0.574026
H 	-1.061906	-0.968944	0.460003
H 	-1.265605	0.401114	-1.040919
