13
02/13/2019 22:15, XYZ structure generated by mol3D Class, molSimplify
C 	1.909466	0.398575	0.186969
C 	1.065725	-0.579578	-0.141490
C 	-0.365544	-0.380498	-0.517022
C 	-1.416266	-0.408734	0.558777
C 	-1.101714	0.868810	-0.175259
H 	1.605889	1.434647	0.159389
H 	2.931819	0.177958	0.487271
H 	1.393860	-1.618268	-0.098415
H 	-0.666626	-0.872153	-1.446880
H 	-1.078170	-0.491371	1.599330
H 	-2.353159	-0.910630	0.344454
H 	-1.822272	1.260523	-0.884997
H 	-0.580199	1.618058	0.412305
