10
02/13/2019 22:15, XYZ structure generated by mol3D Class, molSimplify
C 	-2.262844	-0.121501	0.035192
C 	-0.956284	-0.347197	-0.050781
N 	0.029613	0.648760	-0.012202
C 	1.386300	0.387426	-0.015010
O 	1.902746	-0.696944	0.026003
H 	-2.963074	-0.960165	0.017812
H 	-2.669870	0.888817	0.075285
H 	-0.543502	-1.342327	-0.080748
H 	-0.285348	1.599993	0.064106
H 	1.984374	1.345488	0.044720
