10
02/13/2019 22:15, XYZ structure generated by mol3D Class, molSimplify
C 	-2.241894	-0.125869	-0.113033
C 	-0.897231	-0.409169	0.131261
N 	0.047729	0.667043	0.125233
C 	1.395408	0.427015	-0.104001
O 	1.814138	-0.693076	-0.025858
H 	-3.114966	-0.820937	-0.036077
H 	-2.577881	0.845582	-0.451511
H 	-0.455536	-1.374208	0.188441
H 	-0.218956	1.616621	0.155208
H 	1.983437	1.267825	-0.164421
