16
02/13/2019 22:15, XYZ structure generated by mol3D Class, molSimplify
C 	0.617215	1.524795	0.076540
C 	0.469858	0.069440	-0.307107
C 	1.662330	-0.833822	0.027791
C 	-0.753438	-0.677096	0.235617
N 	-1.980924	-0.101979	-0.205589
H 	0.898342	1.539850	1.186661
H 	1.404988	2.022398	-0.486126
H 	-0.413028	2.102831	0.037439
H 	0.331463	0.096189	-1.390581
H 	1.827665	-0.871949	1.118342
H 	1.604871	-1.871157	-0.284267
H 	2.563399	-0.448172	-0.345789
H 	-0.600876	-0.805376	1.351319
H 	-0.783008	-1.675805	-0.244315
H 	-2.831707	-0.684828	-0.011588
H 	-2.184257	0.730129	0.356303
