12
02/11/2019 18:37, XYZ structure generated by mol3D Class, molSimplify
C 	1.753896	-0.254587	-0.305300
C 	0.523137	0.552900	0.316026
C 	-0.746323	-0.307626	0.347535
C 	-1.863077	0.026016	-0.272360
H 	1.285687	-0.831826	-1.230414
H 	2.051295	-1.118673	0.394955
H 	2.616773	0.403713	-0.421351
H 	0.830430	0.769449	1.360345
H 	0.481989	1.554126	-0.199237
H 	-0.501413	-1.283405	0.746031
H 	-1.963655	0.939887	-0.839643
H 	-2.689595	-0.649818	-0.388153
