10
02/13/2019 22:15, XYZ structure generated by mol3D Class, molSimplify
N 	0.033770	0.148887	2.379803
C 	0.059951	-0.388484	1.238350
N 	-0.084770	0.248522	-0.000296
C 	-0.089913	-0.342477	-1.231180
N 	0.083665	0.130883	-2.384442
H 	-0.161475	1.140240	2.330920
H 	0.128175	-1.438576	1.123443
H 	-0.100642	1.274948	0.022207
H 	-0.168583	-1.433132	-1.103262
H 	0.205414	1.153442	-2.390102
