11
02/13/2019 22:15, XYZ structure generated by mol3D Class, molSimplify
C 	0.747199	1.364608	-0.013706
C 	0.610136	-0.139255	0.013491
O 	1.540389	-0.933310	0.033943
N 	-0.667095	-0.654935	-0.089188
N 	-1.806767	0.166019	0.052735
H 	0.204229	1.855784	0.804575
H 	1.800818	1.625593	0.045479
H 	0.322799	1.721874	-0.982754
H 	-0.734045	-1.662089	-0.065154
H 	-2.440696	0.060068	-0.754101
H 	-2.293411	-0.026373	0.922311
