12
03/25/2019 10:01, XYZ structure generated by mol3D Class, molSimplify
C 	0.974283	1.301475	0.064665
C 	0.964732	-0.178533	0.004167
O 	1.911836	-0.761854	-0.451862
C 	-0.269417	-0.885254	0.620966
C 	-1.706443	-0.446167	0.038816
O 	-1.926890	0.750374	-0.392148
H 	2.051423	1.527297	-0.346185
H 	0.138156	1.658515	-0.593514
H 	0.753265	1.638004	1.188332
H 	-0.149454	-1.973302	0.580513
H 	-0.354422	-0.579496	1.734018
H 	-2.596657	-1.400548	-0.009357
