12
02/13/2019 22:15, XYZ structure generated by mol3D Class, molSimplify
O 	1.685848	-0.039327	-0.304130
C 	0.560853	0.009539	0.540879
C 	-0.455498	-1.030636	0.134800
N 	-1.246648	-0.000993	-0.571966
C 	-0.519921	1.056573	0.181261
H 	1.287359	0.023786	-1.215428
H 	0.923881	0.100026	1.603687
H 	-0.113687	-1.875756	-0.455772
H 	-0.885688	-1.287653	1.098911
H 	-2.240410	-0.051139	-0.372632
H 	-0.230051	1.856905	-0.464510
H 	-0.900828	1.449366	1.182190
