15
02/13/2019 22:15, XYZ structure generated by mol3D Class, molSimplify
C 	1.632663	0.976175	0.050496
C 	1.339760	-0.516368	-0.178589
C 	-0.053114	-0.894839	0.354835
C 	-1.206100	-0.291427	-0.383571
C 	-2.058927	0.591226	0.102500
H 	2.639521	1.186001	-0.335114
H 	0.872523	1.640780	-0.381437
H 	1.637871	1.185129	1.120405
H 	1.379441	-0.729001	-1.240732
H 	2.080023	-1.170342	0.274892
H 	-0.205496	-1.998363	0.307108
H 	-0.094436	-0.613209	1.395756
H 	-1.417531	-0.663341	-1.391413
H 	-2.911500	0.880545	-0.515157
H 	-1.981393	1.040264	1.110370
