16
02/13/2019 22:15, XYZ structure generated by mol3D Class, molSimplify
C 	0.566241	1.452672	0.108503
C 	0.470791	-0.002969	-0.350192
C 	1.733968	-0.774635	0.030871
C 	-0.765785	-0.692226	0.227733
N 	-1.999380	-0.027306	-0.185510
H 	0.609821	1.511623	1.204584
H 	1.469795	1.930850	-0.286665
H 	-0.292619	2.038243	-0.236791
H 	0.359685	-0.012817	-1.442324
H 	1.876157	-0.778459	1.118802
H 	1.681933	-1.817399	-0.304411
H 	2.624424	-0.320084	-0.418125
H 	-0.647798	-0.762777	1.326163
H 	-0.799709	-1.722019	-0.149287
H 	-2.798171	-0.608634	0.048334
H 	-2.119397	0.834393	0.337768
