12
02/13/2019 22:15, XYZ structure generated by mol3D Class, molSimplify
C 	-1.926356	0.181065	-0.082427
N 	-0.639103	-0.655824	0.202048
C 	0.659564	-0.204002	-0.056494
C 	0.685693	1.289888	-0.088813
O 	1.605821	-0.942250	0.021007
H 	-1.577706	1.205784	1.263089
H 	-3.075947	-1.093788	0.105921
H 	-1.733978	1.046112	-1.783117
H 	-0.730043	-1.717551	0.153181
H 	-0.389655	1.909767	-0.624453
H 	0.912241	1.606569	1.241213
H 	1.696488	1.714119	-0.784939
