8
02/11/2019 18:37, XYZ structure generated by mol3D Class, molSimplify
O 	-1.691360	-0.464052	-0.144264
C 	-0.610213	0.495001	0.017096
C 	0.816455	0.059781	0.128381
C 	2.065711	-0.102776	-0.070790
H 	-1.928147	-0.872300	0.923802
H 	-0.642579	1.243344	0.845660
H 	-0.679499	1.201485	-0.791334
H 	3.090778	-0.307261	-0.287131
