14
03/25/2019 10:02, XYZ structure generated by mol3D Class, molSimplify
C 	2.685605	-0.364549	-0.149022
C 	1.296051	-0.259148	0.445936
O 	0.562585	0.679784	-0.320126
C 	-0.757446	0.829837	0.127970
C 	-1.650411	-0.315970	-0.317824
O 	-2.746734	-0.523315	0.141379
H 	2.630804	-0.713777	-1.184448
H 	3.296768	-1.069132	0.426580
H 	3.174961	0.613239	-0.147188
H 	0.793168	-1.242256	0.433571
H 	1.343560	0.069253	1.496366
H 	-0.824563	0.936864	1.221715
H 	-1.152691	1.748546	-0.324236
H 	-1.226492	-0.936633	-1.137357
