8
02/11/2019 18:37, XYZ structure generated by mol3D Class, molSimplify
C 	-1.317806	-0.410174	-0.000780
O 	-0.488092	0.757819	-0.059361
C 	0.830481	0.428215	0.050396
O 	1.265633	-0.679317	0.001151
H 	-0.950424	-1.147659	0.816555
H 	-2.348929	-0.046270	0.395363
H 	-1.387086	-1.005285	-0.982283
H 	1.405495	1.390764	0.103431
