8
02/13/2019 22:15, XYZ structure generated by mol3D Class, molSimplify
C 	-1.049998	0.431591	0.022777
C 	0.102964	1.133433	0.034116
N 	1.036709	0.187826	-0.045641
N 	0.491996	-1.104523	0.053791
N 	-0.761891	-0.877114	-0.030735
H 	-2.133066	0.706763	-0.264410
H 	0.358248	2.122938	0.085569
H 	2.088274	0.281748	-0.184748
