17
03/25/2019 10:02, XYZ structure generated by mol3D Class, molSimplify
N 	2.835924	-0.580263	0.208732
C 	1.444593	-0.230506	-0.452635
C 	0.715607	0.872073	0.249032
C 	-0.736311	0.766219	-0.246203
C 	-1.534953	-0.256580	0.633308
O 	-2.781209	-0.612279	-0.295907
H 	3.424597	0.724491	0.778157
H 	3.359971	-1.032912	-1.021857
H 	0.894973	-1.262508	-0.405296
H 	1.523482	0.166117	-1.629782
H 	0.792550	0.744884	1.321686
H 	1.038888	1.929712	-0.029360
H 	-0.771629	0.602342	-1.337511
H 	-1.204021	1.906033	-0.200369
H 	-0.904468	-1.374020	0.975862
H 	-1.836260	0.292937	1.854676
H 	-3.484915	0.340494	-0.554814
