14
02/13/2019 22:15, XYZ structure generated by mol3D Class, molSimplify
C 	-1.087719	-1.164077	-0.020439
C 	-0.140430	0.057653	-0.090672
C 	-0.864270	1.415074	-0.074287
C 	1.220473	-0.225125	-0.589210
N 	1.078999	-0.225997	0.810875
H 	-0.450687	-2.066461	-0.363628
H 	-1.321894	-1.337323	1.148295
H 	-1.960299	-1.062497	-0.671055
H 	-1.412952	1.651791	0.876334
H 	-0.139350	2.298922	-0.202645
H 	-1.671613	1.547766	-0.812282
H 	1.626100	-1.226800	-0.870335
H 	1.810385	0.488192	-1.100057
H 	1.302023	0.802220	1.153731
