13
02/13/2019 22:15, XYZ structure generated by mol3D Class, molSimplify
C 	-1.662007	-0.667296	-0.089852
N 	-0.348878	-0.013435	0.185817
C 	-0.325143	1.419073	-0.030704
C 	0.820994	-0.754082	-0.008047
N 	1.977756	-0.243807	-0.034392
H 	-2.488714	0.049717	-0.378062
H 	-2.077471	-1.212779	0.817055
H 	-1.632113	-1.367579	-0.958966
H 	0.815197	2.006991	0.448353
H 	-1.343186	1.756687	0.593807
H 	-0.255449	1.670074	-1.295673
H 	0.550838	-1.834491	-0.042857
H 	1.867513	0.762884	0.243630
