18
03/25/2019 10:01, XYZ structure generated by mol3D Class, molSimplify
C 	-2.595387	0.907717	0.002393
C 	-2.054807	-0.554006	-0.159056
C 	-0.612446	-0.667861	0.362188
C 	0.471996	-0.448285	-0.384453
C 	1.977805	-0.463291	0.191960
C 	2.748961	0.886926	0.005456
H 	-2.309152	1.571149	-1.251375
H 	-3.902334	0.469948	0.049560
H 	-2.145952	1.651609	1.146699
H 	-2.649468	-1.340981	0.325217
H 	-1.872630	-0.828461	-1.252804
H 	-0.388117	-0.749590	1.409176
H 	0.377829	-0.158946	-1.453813
H 	2.167968	-0.653999	1.305376
H 	2.561183	-1.291810	-0.330724
H 	3.836991	0.525466	0.212955
H 	2.354700	1.711493	0.724915
H 	2.729556	1.270147	-1.105312
