13
03/25/2019 10:01, XYZ structure generated by mol3D Class, molSimplify
C 	0.711953	1.309744	0.170840
C 	0.739656	-0.075108	-0.366241
O 	2.045024	-0.605207	-0.232695
C 	-0.343220	-0.893807	0.413803
C 	-1.666555	-0.292997	0.173320
N 	-2.570789	0.372294	-0.296137
H 	-0.062336	2.031734	-0.238554
H 	0.669758	1.481117	1.311806
H 	1.755925	1.709966	-0.120724
H 	0.476212	-0.082476	-1.451309
H 	2.427110	-0.402156	0.654241
H 	-0.013205	-1.022116	1.502104
H 	-0.335849	-1.891667	-0.018624
