13
02/13/2019 22:15, XYZ structure generated by mol3D Class, molSimplify
C 	-1.965240	0.631757	0.007328
N 	-1.170370	-0.610734	0.019336
N 	0.149458	-0.753086	-0.023216
C 	0.785172	0.355865	0.040944
C 	2.317070	0.127147	-0.042376
H 	-3.020223	0.270441	-0.333866
H 	-1.429471	1.362170	-0.732036
H 	-1.935572	1.212805	1.060685
H 	-1.740415	-1.490145	-0.174605
H 	0.225600	1.359101	0.068070
H 	2.634945	-0.215090	1.025630
H 	2.474194	-0.824852	-0.687265
H 	2.971715	1.006256	-0.242913
