8
02/13/2019 22:15, XYZ structure generated by mol3D Class, molSimplify
C 	-2.239791	-0.508072	-0.062846
C 	-1.218706	0.117108	0.083953
C 	0.041748	0.819159	-0.026301
C 	1.294985	-0.000500	0.020004
N 	2.238794	-0.650568	-0.012556
H 	-3.223226	-1.021482	0.080525
H 	0.186539	1.587134	0.792572
H 	0.064890	1.450576	-0.875004
