10
02/13/2019 22:15, XYZ structure generated by mol3D Class, molSimplify
O 	1.443965	-0.939656	0.073181
C 	1.183178	0.356898	-0.356109
C 	-0.108718	0.976382	0.246126
C 	-1.240362	0.093361	0.023662
N 	-2.114844	-0.643506	-0.090907
H 	1.307231	-0.970646	1.109252
H 	1.034056	0.286737	-1.441919
H 	1.967268	1.071663	-0.096181
H 	-0.295837	1.938706	-0.257278
H 	-0.011148	1.135794	1.304006
