10
02/13/2019 22:15, XYZ structure generated by mol3D Class, molSimplify
C 	-1.437742	0.747290	0.001638
C 	0.025486	0.423099	-0.017993
C 	0.984825	1.314854	-0.009617
C 	0.359446	-0.975115	0.050911
N 	0.432687	-2.147763	-0.009639
H 	-1.987858	0.056667	0.685348
H 	-1.833612	0.544302	-1.029418
H 	-1.536030	1.855683	0.387603
H 	2.032865	1.145042	-0.001518
H 	0.737215	2.386890	-0.205039
