8
02/11/2019 18:37, XYZ structure generated by mol3D Class, molSimplify
O 	1.475721	-0.465095	-0.144257
N 	0.547232	0.585056	0.094220
C 	-0.808421	0.486335	-0.027039
N 	-1.582242	-0.547532	0.052821
H 	1.230344	-1.210153	0.947145
H 	0.963647	1.418226	-0.386607
H 	-1.262415	1.497028	0.009470
H 	-0.916139	-1.363543	-0.201070
