16
03/25/2019 10:01, XYZ structure generated by mol3D Class, molSimplify
C 	1.482782	-1.229695	-0.240978
C 	0.987446	0.161701	0.059861
C 	1.621315	1.249844	-0.319058
C 	-0.327815	0.267958	0.922682
C 	-1.454036	-0.434676	0.212292
C 	-2.424694	0.155924	-0.567288
H 	0.825125	-1.730518	-1.013530
H 	1.432111	-1.922385	0.648929
H 	2.537833	-1.324364	-0.643347
H 	1.276738	2.241557	-0.002055
H 	2.460984	1.236478	-1.014801
H 	-0.200186	-0.200507	1.878560
H 	-0.598824	1.319816	1.218103
H 	-1.402603	-1.539083	0.159876
H 	-3.127008	-0.474136	-1.200134
H 	-2.567036	1.256670	-0.640530
