15
02/13/2019 22:15, XYZ structure generated by mol3D Class, molSimplify
C 	1.942690	-0.121033	0.086103
O 	0.692439	-0.587148	-0.351734
C 	-0.414149	-0.007069	0.317950
C 	-1.613616	-0.878906	-0.011287
C 	-0.639091	1.443713	-0.101727
H 	2.121617	0.930506	-0.178784
H 	2.704036	-0.732916	-0.403658
H 	2.050231	-0.224850	1.176887
H 	-0.224998	-0.039430	1.406278
H 	-2.510127	-0.517345	0.502135
H 	-1.427958	-1.913848	0.292899
H 	-1.801312	-0.862631	-1.091178
H 	0.217080	2.079608	0.146915
H 	-0.805369	1.496421	-1.182805
H 	-1.517959	1.856008	0.405458
