13
02/13/2019 22:15, XYZ structure generated by mol3D Class, molSimplify
N 	-1.824335	-0.079597	0.164904
C 	-0.531901	-0.017855	-0.443075
C 	0.526848	-1.051211	0.037903
N 	1.529831	0.021356	-0.042448
C 	0.477596	1.026831	0.072449
H 	-1.798018	0.105722	1.162692
H 	-2.440798	0.609437	-0.281698
H 	-0.635663	0.041166	-1.513348
H 	0.206099	-1.368407	1.044799
H 	0.743939	-1.938959	-0.575288
H 	2.269726	0.038368	0.680161
H 	0.659528	1.910743	-0.503622
H 	0.181847	1.276488	1.110475
