12
02/13/2019 22:15, XYZ structure generated by mol3D Class, molSimplify
C 	1.762020	-0.658923	0.017837
C 	0.372830	-0.034529	-0.087248
C 	0.171342	1.444706	0.028347
N 	-0.595705	-0.832663	0.056269
O 	-1.828503	-0.327653	0.005815
H 	2.509325	-0.203098	-0.734195
H 	2.287901	-0.468674	0.960634
H 	1.738596	-1.770799	-0.231151
H 	-0.307412	1.808011	0.969612
H 	-0.528637	1.795691	-0.783011
H 	1.069494	2.163339	-0.174137
H 	-1.909487	0.620339	-0.392931
