9
02/13/2019 22:15, XYZ structure generated by mol3D Class, molSimplify
C 	1.249915	-1.015837	0.011104
C 	0.467523	0.180690	-0.024556
O 	0.908179	1.336561	-0.093793
C 	-0.947392	-0.085020	0.072030
C 	-2.180265	-0.167444	0.047130
H 	0.904259	-1.746035	1.589920
H 	2.859401	-0.255962	-0.191994
H 	0.531097	-1.918469	-1.218378
H 	-3.248588	-0.073001	0.050406
