13
02/13/2019 22:15, XYZ structure generated by mol3D Class, molSimplify
C 	0.000238	1.238521	0.001957
C 	1.244629	0.311949	-0.001852
C 	0.664329	-1.078167	0.000366
C 	-0.664737	-1.078913	0.002498
C 	-1.244648	0.312803	-0.002071
H 	-0.002243	1.887130	0.881972
H 	-0.000080	1.898558	-0.871432
H 	1.882842	0.482001	0.875337
H 	1.881446	0.477711	-0.881595
H 	1.289108	-1.968539	-0.002557
H 	-1.285651	-1.971192	-0.001725
H 	-1.884794	0.481659	0.871690
H 	-1.878373	0.477121	-0.882398
