14
03/25/2019 10:01, XYZ structure generated by mol3D Class, molSimplify
C 	-1.444461	-1.084854	-0.533164
C 	-1.106672	-0.264877	0.684171
C 	0.105746	0.677183	0.526230
O 	-0.252918	1.572178	-0.574942
C 	1.211062	-0.191831	0.167500
C 	2.221836	-0.841086	-0.139620
H 	-2.572660	-1.403041	-0.455806
H 	-1.292695	-0.363572	-1.440649
H 	-0.816958	-2.070387	-0.536303
H 	-1.036146	-0.902682	1.620455
H 	-1.982035	0.347105	0.915587
H 	0.327818	1.311948	1.428519
H 	0.422030	2.372983	-0.500255
H 	2.966604	-1.526162	-0.561135
