12
02/11/2019 18:37, XYZ structure generated by mol3D Class, molSimplify
C 	1.529299	0.520815	-0.090287
C 	0.589428	-0.627317	0.255790
O 	-0.659995	-0.549967	-0.396083
C 	-1.499415	0.452893	0.115350
H 	2.513177	0.354144	0.361411
H 	1.653625	0.591548	-1.175646
H 	1.155694	1.482758	0.276930
H 	0.441751	-0.683251	1.347889
H 	1.028002	-1.577183	-0.067913
H 	-1.121888	1.465729	-0.088040
H 	-2.469820	0.340806	-0.374640
H 	-1.636799	0.346504	1.203994
