11
02/13/2019 22:15, XYZ structure generated by mol3D Class, molSimplify
O 	1.901465	0.031600	0.436867
C 	0.665032	-0.036214	-0.154250
C 	-0.417836	-1.107691	-0.401945
C 	-1.465782	-0.011450	0.496013
C 	-0.364630	1.098474	-0.430186
H 	-0.719103	-1.031453	-1.868052
H 	-0.057225	-2.436298	-0.045721
H 	-3.113557	-0.007886	0.322720
H 	-0.965120	0.263173	2.152149
H 	-0.702001	1.082950	-1.745358
H 	-0.257519	2.305281	0.089594
