9
02/13/2019 22:15, XYZ structure generated by mol3D Class, molSimplify
N 	-1.885891	-0.701239	-0.013667
C 	-1.308229	0.457335	-0.031665
N 	0.042728	0.613619	0.095871
C 	1.060027	-0.362632	0.068701
O 	2.261332	-0.134110	-0.080542
H 	-2.942324	-0.426233	-0.295306
H 	-1.841514	1.477721	-0.079155
H 	0.364270	1.549244	-0.232781
H 	0.699859	-1.363955	0.302317
