14
03/25/2019 10:01, XYZ structure generated by mol3D Class, molSimplify
C 	3.002545	0.023324	-0.100228
C 	1.544265	0.033780	0.026723
C 	0.343014	0.048002	0.187835
C 	-1.121674	-0.044633	0.373744
C 	-1.844847	1.168063	-0.217882
O 	-1.652637	-1.226933	-0.208985
H 	3.449799	-1.175091	0.431828
H 	3.506519	1.111655	0.630062
H 	3.249857	0.139228	-1.439101
H 	-1.320765	-0.041336	1.474580
H 	-2.917197	0.979173	-0.077255
H 	-1.643696	1.248353	-1.284344
H 	-1.533137	2.111174	0.272517
H 	-1.124364	-1.983171	0.108073
