12
02/13/2019 22:15, XYZ structure generated by mol3D Class, molSimplify
C 	-0.978359	1.219798	0.156712
C 	-0.316859	-0.041683	-0.378919
C 	-1.092070	-1.224338	0.147710
C 	1.097011	-0.117016	-0.150433
N 	2.221422	0.158344	0.177527
H 	-0.844495	1.255762	1.238282
H 	-2.028877	1.260796	-0.228629
H 	-0.516317	2.094201	-0.215041
H 	-0.329007	-0.073094	-1.512490
H 	-2.193504	-1.025795	0.066678
H 	-1.133578	-2.257747	-0.503957
H 	-0.989300	-1.510560	1.165883
