10
02/13/2019 22:15, XYZ structure generated by mol3D Class, molSimplify
C 	-2.155241	-0.265085	-0.305689
C 	-1.045947	-0.192278	0.419074
C 	0.086064	0.759110	0.115059
C 	1.365798	0.056350	-0.055628
N 	2.369581	-0.505446	-0.175754
H 	-2.307945	0.357028	-1.186276
H 	-2.956235	-0.950277	-0.045598
H 	-0.914204	-0.828917	1.292257
H 	0.210563	1.482909	0.930176
H 	-0.123815	1.330262	-0.796486
