16
03/25/2019 10:01, XYZ structure generated by mol3D Class, molSimplify
C 	-0.997364	1.244329	0.702227
C 	-0.743453	0.229022	-0.468690
O 	-1.622864	-0.981264	-0.296989
C 	0.733243	-0.165384	-0.420034
C 	1.029481	-1.250909	0.688371
O 	1.559929	0.954429	-0.217799
H 	-2.326329	1.057779	0.989200
H 	-0.220005	0.926410	1.795192
H 	-0.625802	2.570742	0.076683
H 	-1.127614	0.806994	-1.358305
H 	-1.365165	-1.536482	-1.071704
H 	1.117898	-0.638423	-1.460475
H 	0.154665	-1.990411	0.653375
H 	2.041378	-1.787548	0.514573
H 	1.096373	-0.750827	1.661144
H 	1.992593	1.088256	-1.341512
