8
02/11/2019 18:37, XYZ structure generated by mol3D Class, molSimplify
O 	-1.661056	-0.431599	-0.072569
C 	-0.612600	0.562839	-0.003314
C 	0.764814	0.002732	-0.026844
C 	2.012143	-0.098791	0.043095
H 	-0.938233	-1.282142	0.279000
H 	-0.695342	1.082171	1.018416
H 	-0.765782	1.218245	-0.807733
H 	3.040087	-0.443969	-0.201280
