10
02/13/2019 22:15, XYZ structure generated by mol3D Class, molSimplify
C 	-1.854429	-0.102482	0.005360
O 	-0.555098	-0.719854	-0.008019
C 	0.497494	0.132815	-0.010171
N 	1.655632	-0.532661	-0.002373
O 	0.406934	1.342574	0.003323
H 	-2.580628	-0.933269	0.052479
H 	-2.011632	0.469853	-0.927010
H 	-1.911564	0.513784	0.902107
H 	1.719559	-1.532951	0.036330
H 	2.518717	0.034183	0.100872
