12
02/13/2019 22:15, XYZ structure generated by mol3D Class, molSimplify
C 	-1.894773	0.586657	-0.001276
O 	-1.272515	-0.677029	0.011636
N 	0.090889	-0.750998	-0.011029
C 	0.812521	0.307144	-0.020284
C 	2.301780	0.147926	0.010326
H 	-1.559107	1.250897	0.839385
H 	-1.728690	1.122851	-0.954370
H 	-2.985601	0.393282	0.111251
H 	0.388077	1.320992	-0.004788
H 	2.716851	-0.349963	-0.885928
H 	2.783317	1.130190	0.144782
H 	2.584595	-0.464188	0.852038
