12
03/25/2019 10:01, XYZ structure generated by mol3D Class, molSimplify
C 	2.091761	-0.656909	0.055220
N 	0.679883	-0.630583	-0.239563
C 	-0.025992	0.527043	-0.015426
O 	0.488863	1.622221	0.135968
N 	-1.413229	0.399543	-0.244448
O 	-1.838066	-0.872577	0.250458
H 	2.373181	-0.329765	1.270592
H 	2.531638	-1.842621	-0.174873
H 	2.590020	0.153943	-0.736750
H 	0.187616	-1.490858	-0.003555
H 	-1.896528	1.123878	0.295133
H 	-2.165303	-1.305648	-0.565047
