14
03/25/2019 10:01, XYZ structure generated by mol3D Class, molSimplify
O 	-2.323074	-0.505020	-0.513246
C 	-1.577292	0.215851	0.532219
C 	-0.279227	0.766623	-0.179885
C 	0.788531	-0.186760	-0.305520
C 	2.218735	0.131589	-0.383847
O 	1.664352	-0.533820	0.836510
H 	-3.885974	-0.112236	-0.319118
H 	-2.215842	1.064955	0.996216
H 	-1.271386	-0.550891	1.356812
H 	-0.100017	1.722297	0.408219
H 	-0.629541	1.130047	-1.119044
H 	0.464604	-1.149180	-0.703544
H 	2.364491	1.227324	-0.349566
H 	2.973682	-0.398433	-1.059469
