13
02/13/2019 22:15, XYZ structure generated by mol3D Class, molSimplify
C 	0.758298	-0.997169	0.172204
C 	-0.765605	-0.983953	-0.203084
C 	-1.152539	0.443916	0.182797
O 	-0.016577	1.198964	-0.126285
C 	1.162284	0.454112	-0.025368
H 	1.386855	-1.696139	-0.452148
H 	0.959553	-1.269873	1.217577
H 	-1.400782	-1.766570	0.262217
H 	-0.819717	-0.922100	-1.253781
H 	-2.006691	0.807231	-0.424993
H 	-1.369267	0.589209	1.262539
H 	1.755624	0.760436	0.842955
H 	1.728487	0.510987	-0.956925
