10
02/13/2019 22:15, XYZ structure generated by mol3D Class, molSimplify
C 	-2.207036	-0.284079	-0.309100
C 	-1.082574	-0.163779	0.418468
C 	0.105766	0.721322	0.123220
C 	1.414337	0.110678	-0.053925
N 	2.396889	-0.523042	-0.181810
H 	-2.395045	0.413316	-1.129590
H 	-2.989376	-0.947811	-0.067481
H 	-0.920991	-0.800371	1.264917
H 	0.133023	1.454431	0.979637
H 	-0.058345	1.205830	-0.838886
