13
02/13/2019 22:15, XYZ structure generated by mol3D Class, molSimplify
C 	1.866507	0.043997	0.103733
C 	0.451277	-0.046373	-0.461040
C 	-0.543901	1.036931	0.138520
C 	-1.612550	-0.097000	-0.027909
O 	-0.341026	-1.041182	0.181991
H 	1.973841	-0.150429	1.213586
H 	2.301322	0.980838	-0.217873
H 	2.609441	-0.711260	-0.434951
H 	0.445259	-0.131110	-1.550349
H 	-0.194983	1.142043	1.345827
H 	-0.700536	1.989579	-0.442372
H 	-2.560736	-0.330287	0.719346
H 	-2.055657	-0.188017	-1.219958
