9
02/11/2019 18:37, XYZ structure generated by mol3D Class, molSimplify
C 	1.547856	-0.451678	-0.000101
C 	0.488139	0.654205	0.000264
C 	-0.875619	0.112799	-0.000494
N 	-1.944336	-0.329604	0.000238
H 	1.452907	-1.085280	-0.885988
H 	2.547696	-0.007946	0.000335
H 	1.451782	-1.085662	0.885653
H 	0.597274	1.297375	0.880127
H 	0.599339	1.297221	-0.879640
