13
02/13/2019 22:15, XYZ structure generated by mol3D Class, molSimplify
C 	-0.492842	1.406365	-0.072877
C 	-0.414036	-0.019498	0.319295
C 	-1.592576	-0.764066	-0.186726
C 	0.958373	-0.638232	0.132593
O 	1.974644	-0.090157	-0.184230
H 	-0.392250	1.674017	-1.171726
H 	-1.490119	1.754616	0.232349
H 	0.210423	2.032849	0.481468
H 	-0.461085	-0.023373	1.409843
H 	-2.574268	-0.358835	0.249285
H 	-1.604815	-1.895545	0.012160
H 	-1.560394	-0.509218	-1.293247
H 	1.105888	-1.670076	0.517528
