11
02/11/2019 18:37, XYZ structure generated by mol3D Class, molSimplify
C 	-0.001239	1.106564	-0.033855
C 	-1.051641	-0.048563	0.043801
N 	-0.015469	-1.050695	-0.172364
C 	1.064891	-0.050326	0.023540
H 	0.071510	1.821100	0.820017
H 	-0.054474	1.661027	-0.956254
H 	-1.818134	-0.083063	-0.750531
H 	-1.597125	-0.114450	1.011883
H 	0.030018	-1.835354	0.447621
H 	1.523812	-0.003679	1.087926
H 	1.916309	-0.049165	-0.651783
