9
02/13/2019 22:15, XYZ structure generated by mol3D Class, molSimplify
O 	1.907904	-0.007681	-0.065368
C 	0.722286	-0.788375	0.067018
C 	-0.521616	0.120699	-0.034653
O 	-1.726274	-0.435140	-0.042064
O 	-0.479750	1.363680	0.064702
H 	1.557433	0.863536	-0.097223
H 	0.635929	-1.650331	-0.614631
H 	0.606496	-1.217827	1.144685
H 	-1.691546	-1.391867	-0.140506
