10
02/11/2019 18:17, XYZ structure generated by mol3D Class, molSimplify
C 	-0.027091	-0.222290	1.204757
N 	-0.027153	0.586827	0.000001
C 	-0.026874	-0.222288	-1.204890
H 	0.796184	-0.959428	1.251052
H 	-0.970232	-0.777823	1.266101
H 	0.035425	0.423859	2.086181
H 	0.790592	1.188602	0.000895
H 	0.033856	0.424040	-2.085953
H 	-0.969215	-0.779975	-1.264922
H 	0.796058	-0.958634	-1.251792
