13
02/11/2019 18:37, XYZ structure generated by mol3D Class, molSimplify
C 	1.970881	-0.108388	0.007369
C 	0.526495	0.495120	-0.066233
C 	-0.660344	-0.525829	0.081610
N 	-1.878367	0.196753	-0.100956
H 	2.773713	0.666278	0.217458
H 	2.336187	-0.543681	-0.939313
H 	2.079993	-0.979540	0.774580
H 	0.470570	0.997015	-1.063534
H 	0.350799	1.306470	0.666084
H 	-0.537826	-1.070203	1.011920
H 	-0.525739	-1.252680	-0.715311
H 	-2.079505	0.855724	0.667984
H 	-2.648493	-0.463019	-0.160926
