16
03/25/2019 10:01, XYZ structure generated by mol3D Class, molSimplify
C 	-2.687213	-0.216157	-0.055639
C 	-1.344334	0.376193	0.051384
C 	-0.309754	-0.414365	0.050326
C 	1.045044	-0.154909	0.046545
C 	1.493250	1.323832	0.016561
C 	2.020700	-1.108857	-0.064530
H 	-3.247313	-0.271245	-1.074605
H 	-2.514782	-1.319223	0.296130
H 	-3.462345	0.483032	0.476555
H 	-1.096277	1.475218	0.137652
H 	-0.530303	-1.440147	0.182003
H 	2.587223	1.416690	0.030280
H 	1.012337	1.881913	0.828297
H 	1.223320	1.732279	-0.912434
H 	1.845758	-2.199564	-0.116087
H 	3.086947	-0.723313	-0.379400
