10
02/13/2019 22:15, XYZ structure generated by mol3D Class, molSimplify
N 	1.709236	-0.546294	-0.006718
C 	0.518574	0.112746	-0.004876
N 	0.177622	1.315325	0.009403
N 	-0.656776	-0.781278	-0.073973
O 	-1.849666	-0.061064	-0.048513
H 	2.686814	0.107966	-0.193117
H 	1.736725	-1.532248	-0.238931
H 	0.993888	2.016880	0.090149
H 	-0.632638	-1.348819	0.736552
H 	-1.669310	0.836460	0.392460
