10
02/13/2019 22:15, XYZ structure generated by mol3D Class, molSimplify
C 	-1.551424	-0.772910	0.136078
O 	-1.078554	0.430397	-0.437056
C 	0.053295	0.931161	0.207372
C 	1.242240	0.061017	0.034287
N 	2.153352	-0.638784	-0.094155
H 	-1.799913	-0.634418	1.198256
H 	-2.453331	-1.047300	-0.413232
H 	-0.809511	-1.578213	0.045354
H 	-0.113576	1.062302	1.288407
H 	0.269536	1.908736	-0.229836
