8
03/25/2019 10:02, XYZ structure generated by mol3D Class, molSimplify
O 	-2.048480	0.075661	-0.077018
C 	-0.812162	-0.066427	0.097932
N 	0.103859	-1.202962	0.020310
N 	1.313331	-0.803716	-0.091011
N 	1.289038	0.508707	0.065925
N 	0.033200	1.031881	0.144193
H 	2.125937	1.007400	-0.659865
H 	-0.020497	2.041896	-1.220998
