13
02/13/2019 22:15, XYZ structure generated by mol3D Class, molSimplify
C 	1.917559	-0.624561	0.037475
O 	1.344452	0.697685	-0.056713
C 	-0.026620	0.688661	0.020561
C 	-0.835701	-0.360767	-0.030521
C 	-2.355260	-0.165465	0.022450
H 	1.652794	-1.217022	-0.845026
H 	1.506677	-1.162693	0.932927
H 	3.033057	-0.473330	0.147758
H 	-0.412878	1.698637	0.184733
H 	-0.458216	-1.390842	-0.171187
H 	-2.699858	0.495466	-0.809466
H 	-2.932092	-1.103746	-0.080966
H 	-2.770962	0.333907	0.946372
