14
03/25/2019 10:01, XYZ structure generated by mol3D Class, molSimplify
C 	2.322224	0.149255	-0.068189
O 	1.111520	-0.527361	-0.339754
C 	0.053082	-0.177199	0.527854
C 	-0.810648	1.124537	0.142155
O 	-1.907335	0.273979	-0.421515
C 	-1.185990	-0.949552	0.139735
H 	3.046994	-0.226937	-0.887505
H 	2.240119	1.232360	-0.210102
H 	2.705391	0.022647	0.938044
H 	0.385119	-0.338894	1.599540
H 	-1.144330	1.781205	1.000951
H 	-0.328632	1.670147	-0.674042
H 	-1.796153	-1.469439	0.871822
H 	-0.943875	-1.671312	-0.716793
