12
02/13/2019 22:15, XYZ structure generated by mol3D Class, molSimplify
C 	-1.908646	0.094280	-0.000311
N 	-0.666351	-0.644328	0.001638
C 	0.615745	-0.167870	0.000144
C 	0.795181	1.338898	-0.001209
O 	1.565838	-0.932860	0.000152
H 	-1.704978	1.165439	0.014093
H 	-2.516208	-0.144763	0.881439
H 	-2.500149	-0.122451	-0.897701
H 	-0.713122	-1.653100	-0.002147
H 	0.340602	1.799609	-0.884735
H 	0.348812	1.798100	0.886254
H 	1.866802	1.538983	-0.005971
