9
02/13/2019 22:15, XYZ structure generated by mol3D Class, molSimplify
C 	1.857645	-0.551897	0.086999
N 	1.300906	0.572793	-0.170856
N 	-0.042676	0.658500	0.140251
C 	-0.980017	-0.346329	-0.095350
O 	-2.179263	-0.188722	0.023790
H 	2.905806	-0.662492	-0.177663
H 	1.331800	-1.393005	0.531439
H 	-0.402576	1.613860	0.162017
H 	-0.515977	-1.281442	-0.465035
