15
02/13/2019 22:15, XYZ structure generated by mol3D Class, molSimplify
C 	2.109942	0.575517	-0.221691
C 	1.260122	-0.579598	0.210937
O 	-0.043095	-0.564595	-0.273292
C 	-0.977768	0.247071	0.428099
C 	-2.344660	0.139131	-0.222207
H 	1.782402	1.522297	0.276883
H 	1.950832	0.649741	-1.321914
H 	3.138118	0.411032	0.071912
H 	1.185989	-0.675055	1.326505
H 	1.718139	-1.445131	-0.225892
H 	-0.989153	0.039954	1.500160
H 	-0.676387	1.319394	0.405277
H 	-3.058601	0.860189	0.329602
H 	-2.282619	0.472514	-1.251402
H 	-2.891011	-0.864791	-0.120327
