13
02/13/2019 22:15, XYZ structure generated by mol3D Class, molSimplify
C 	-1.334666	-1.001050	-0.306113
C 	-1.173624	0.460305	0.379427
C 	0.065205	1.081316	-0.379988
C 	1.452743	0.647784	0.405593
O 	1.451970	-1.118889	-0.105887
H 	-1.072267	-0.845477	-1.454651
H 	-2.311138	-1.469972	-0.049982
H 	-0.498372	-1.714991	-0.070444
H 	-2.145230	1.202916	0.244379
H 	-1.001229	0.384400	1.512354
H 	0.048140	2.183669	-0.200443
H 	0.198579	0.748815	-1.473898
H 	2.346956	2.162844	1.570238
