10
03/25/2019 10:01, XYZ structure generated by mol3D Class, molSimplify
C 	-2.191601	-1.050272	-0.005209
C 	-1.484107	-0.071176	0.006242
C 	-0.671408	1.103369	0.005863
C 	0.669691	1.100440	-0.006303
C 	1.480929	-0.077065	-0.010239
C 	2.198027	-1.048280	0.008974
H 	-2.812750	-1.923580	-0.015794
H 	-1.198079	2.055876	0.026095
H 	1.190892	2.052246	-0.009969
H 	2.801715	-1.928667	0.007681
