12
02/13/2019 22:15, XYZ structure generated by mol3D Class, molSimplify
C 	2.378180	0.144332	-0.037073
N 	1.093371	-0.458832	0.210377
C 	0.062911	0.258751	-0.061137
N 	-1.130448	-0.371397	-0.333551
N 	-2.283111	0.314923	0.157795
H 	3.080478	-0.491731	-0.528811
H 	2.851210	0.233202	0.946470
H 	2.350746	1.186645	-0.585280
H 	0.218741	1.302468	-0.384754
H 	-1.020292	-1.245341	0.114948
H 	-3.086609	-0.109747	-0.445982
H 	-2.644876	0.024886	1.127886
