14
02/13/2019 22:15, XYZ structure generated by mol3D Class, molSimplify
C 	2.246436	-0.373630	0.150618
N 	0.932973	-0.005107	-0.511209
C 	0.040537	0.766078	0.189816
C 	-1.239431	-0.095246	0.586328
O 	-2.014816	-0.247656	-0.554304
H 	2.978152	0.459258	0.639641
H 	2.903717	-0.782189	-0.594835
H 	2.075473	-1.286211	0.975684
H 	1.077113	0.543365	-1.498166
H 	0.323935	1.274291	1.135788
H 	-0.344089	1.505890	-0.582946
H 	-1.809767	0.458365	1.392898
H 	-0.949523	-1.013027	1.107243
H 	-2.898976	-0.796788	-0.403118
