12
03/25/2019 10:02, XYZ structure generated by mol3D Class, molSimplify
O 	2.138634	-0.093000	-0.036824
C 	0.803715	-0.018060	-0.424766
C 	-0.174667	-0.780044	0.418459
O 	-1.258352	-1.393011	-0.196938
C 	-0.164582	0.721147	0.465657
O 	-1.310310	1.301111	-0.091160
H 	2.542358	0.766340	-0.200020
H 	0.591158	-0.014964	-1.499520
H 	0.228211	-1.327945	1.268307
H 	-1.906633	-0.689664	-0.351137
H 	0.223880	1.219896	1.353509
H 	-1.038208	1.978116	-0.720728
