13
03/25/2019 10:01, XYZ structure generated by mol3D Class, molSimplify
O 	2.329743	-0.432245	0.212334
C 	1.453826	0.470487	-0.049852
N 	0.111337	0.281728	-0.709333
C 	-1.186063	1.065656	0.287177
C 	-1.912865	-0.308463	-0.007325
C 	-0.504511	-1.056088	0.123552
H 	1.701680	1.518203	0.247094
H 	-0.828096	0.987767	1.681950
H 	-1.843123	2.209060	-0.150431
H 	-2.078008	-0.373404	-1.191517
H 	-2.840059	-0.685399	0.704080
H 	-0.610394	-2.351237	-0.378623
H 	0.004828	-1.010376	1.363550
