14
02/13/2019 22:15, XYZ structure generated by mol3D Class, molSimplify
C 	-0.057436	1.810071	-0.033629
N 	0.441331	0.455748	0.016592
C 	-0.129694	-0.453307	1.056106
C 	0.017423	-1.605471	-0.010860
C 	-0.096111	-0.412610	-1.008122
H 	0.392071	2.283020	-1.013938
H 	-1.195771	1.855566	0.030915
H 	0.455720	2.424825	0.740284
H 	-1.170961	-0.264726	1.259575
H 	0.526496	-0.556357	1.983566
H 	0.995698	-2.018020	-0.161787
H 	-0.674013	-2.477720	0.086762
H 	-1.168564	0.041342	-1.238162
H 	0.457624	-0.388564	-1.959372
