15
03/25/2019 10:01, XYZ structure generated by mol3D Class, molSimplify
C 	1.836713	-0.333837	-0.607072
C 	0.535658	0.030700	0.172833
N 	0.621171	1.445671	0.471615
C 	-0.234674	-0.845863	1.020677
C 	-0.842036	-0.579839	-0.291791
O 	-1.984794	0.122910	-0.481481
H 	2.032158	-1.408075	-0.917773
H 	2.742626	-0.021455	0.034568
H 	1.810388	0.336227	-1.569121
H 	1.170301	2.006613	-0.318042
H 	-0.444684	1.821466	0.456013
H 	-0.772678	-0.469159	1.915747
H 	0.146682	-1.758124	1.367472
H 	-0.671618	-1.443465	-0.870375
H 	-2.094219	0.243036	-1.557045
