11
02/13/2019 22:15, XYZ structure generated by mol3D Class, molSimplify
C 	-2.335026	0.289807	-0.347941
C 	-1.230008	-0.397210	-0.196944
O 	0.033051	0.282076	0.814449
C 	1.209742	-0.432023	0.373253
C 	2.313578	0.289549	-0.644245
H 	-3.336844	-0.196429	-1.313312
H 	-2.412983	1.403307	0.179188
H 	-1.067093	-1.526476	-1.033731
H 	1.177754	-1.521779	1.036459
H 	2.291142	1.397585	-1.327457
H 	3.320152	-0.076680	-0.752559
