12
02/13/2019 22:15, XYZ structure generated by mol3D Class, molSimplify
C 	-1.942940	0.435827	-0.085660
C 	-1.034164	-0.529834	0.045577
C 	0.383879	-0.388904	0.479350
C 	1.139194	0.794889	0.114779
N 	1.507833	-0.481353	-0.470385
H 	-1.837232	1.508238	0.114525
H 	-2.960821	0.155043	-0.318914
H 	-1.458810	-1.554384	-0.040898
H 	0.566541	-0.832010	1.461697
H 	0.732691	1.549863	-0.539175
H 	1.845788	1.159312	0.797595
H 	1.112816	-0.489841	-1.425202
