14
02/11/2019 18:37, XYZ structure generated by mol3D Class, molSimplify
C 	1.951048	-0.120494	-0.000093
C 	0.563587	0.516652	0.000189
C 	-0.563302	-0.515454	-0.000015
C 	-1.951287	0.119575	-0.000194
H 	2.093506	-0.753029	-0.884357
H 	2.093462	-0.752913	0.884318
H 	2.742594	0.636551	-0.000182
H 	0.455843	1.167726	0.878803
H 	0.455026	1.168789	-0.877334
H 	-0.455262	-1.167561	-0.878023
H 	-0.455284	-1.168130	0.877927
H 	-2.095167	0.750917	-0.885318
H 	-2.741687	-0.638155	0.002111
H 	-2.093568	0.752484	0.883402
