17
03/25/2019 10:01, XYZ structure generated by mol3D Class, molSimplify
C 	1.227564	1.396829	0.374883
C 	0.918136	-0.081747	-0.020899
C 	2.150521	-0.914024	0.002253
C 	-0.239969	-0.626995	-0.492351
C 	-1.598179	0.084281	-0.718439
N 	-2.412771	-0.073409	0.698396
H 	0.363222	2.113470	-0.726698
H 	3.022966	1.575500	0.418536
H 	0.544217	1.388860	2.055604
H 	2.877674	-0.624453	-0.856647
H 	2.783066	-0.959017	0.867515
H 	1.737793	-1.977252	-0.228051
H 	-0.271499	-1.726742	-0.627425
H 	-2.058867	-0.714954	-1.638104
H 	-1.561855	1.326278	-1.155863
H 	-3.399049	0.103948	0.311363
H 	-2.018911	0.681805	1.619880
