13
02/13/2019 22:15, XYZ structure generated by mol3D Class, molSimplify
C 	-2.201970	-0.246001	-0.076635
N 	-0.722748	-0.302461	0.206381
C 	0.109154	0.819342	-0.028999
N 	1.349645	0.745942	-0.132163
C 	1.774129	-0.594737	0.031187
H 	-2.564267	-1.239422	-1.728205
H 	-2.154910	1.531956	-0.438662
H 	-3.112862	-1.023100	1.380254
H 	-0.313766	-1.264954	0.394260
H 	-0.398632	1.811027	-0.089127
H 	1.040351	-1.508581	-0.474605
H 	2.015951	-0.810943	1.315459
H 	2.867807	-0.675921	-0.504179
