14
03/25/2019 10:01, XYZ structure generated by mol3D Class, molSimplify
N 	2.567033	-0.229973	0.236299
N 	1.262505	-0.354555	-0.230144
C 	0.480973	0.725227	-0.083444
C 	-1.001914	0.504118	-0.316458
C 	-1.900835	0.089508	0.796812
C 	-1.685589	-0.755695	-0.443572
H 	3.055307	0.819105	0.405860
H 	3.237405	-0.927555	-0.169868
H 	0.925843	1.741025	0.211852
H 	-1.415447	1.430615	-0.760899
H 	-1.469254	-0.311380	1.729845
H 	-2.831929	0.676937	0.865538
H 	-1.217614	-1.706120	-0.350120
H 	-2.509709	-0.802006	-1.150449
