11
02/13/2019 22:15, XYZ structure generated by mol3D Class, molSimplify
C 	1.912397	-0.416471	0.066019
C 	0.473814	0.117597	-0.103573
O 	0.187079	1.282952	-0.080503
C 	-0.750898	-0.812562	0.025649
O 	-1.861359	0.018622	0.069626
H 	2.373020	-0.709142	-1.426992
H 	1.668425	-1.690447	0.860983
H 	2.679776	0.670604	0.772868
H 	-0.846379	-1.444377	-0.861483
H 	-0.656343	-1.420972	0.953697
H 	-1.660903	0.926975	0.023545
