12
03/25/2019 10:02, XYZ structure generated by mol3D Class, molSimplify
C 	-0.837505	1.613075	0.013212
C 	0.061654	0.417869	0.047888
N 	-0.504734	-0.836941	0.282701
O 	-1.797018	-0.970193	-0.256171
N 	1.326487	0.588995	-0.065851
O 	1.980487	-0.657505	-0.010843
H 	-1.415953	1.682475	0.939194
H 	-1.543302	1.540653	-0.821514
H 	-0.230599	2.517021	-0.097176
H 	0.075756	-1.580309	-0.089774
H 	-2.346519	-1.163392	0.517155
H 	2.895085	-0.413642	-0.197549
