15
03/25/2019 10:01, XYZ structure generated by mol3D Class, molSimplify
C 	-1.896916	-0.913560	-0.058705
C 	-0.807561	0.143819	-0.075600
C 	-1.012753	1.435195	0.193754
C 	0.535050	-0.405113	-0.369412
C 	1.598850	-0.525807	0.654668
N 	1.664307	0.524125	-0.362910
H 	-2.846248	-0.486426	0.281627
H 	-2.039002	-1.319249	-1.079359
H 	-1.651080	-1.747797	0.613969
H 	-1.989186	1.806272	0.478615
H 	-0.183779	2.138074	0.170877
H 	0.536393	-1.177148	-1.137094
H 	2.258340	-1.375134	0.546805
H 	1.430112	-0.182915	1.674882
H 	2.348178	0.259721	-1.078639
