16
03/25/2019 10:02, XYZ structure generated by mol3D Class, molSimplify
C 	-2.207134	-0.058163	0.112720
C 	-0.753150	-0.034249	-0.048446
C 	-0.015688	-1.143302	-0.098702
C 	1.466595	-0.844844	0.022960
C 	1.526157	0.716341	0.086929
C 	0.051111	1.211117	-0.115468
H 	-2.599727	-0.464042	-0.845044
H 	-2.500285	-0.754757	0.994212
H 	-2.614794	0.945934	0.290584
H 	-0.403154	-2.125815	-0.042800
H 	1.993501	-1.296512	-0.839275
H 	1.847168	-1.191589	0.954448
H 	2.330725	1.076465	-0.623131
H 	1.987519	0.964060	1.106946
H 	-0.269492	1.945338	0.612351
H 	-0.041479	1.683240	-1.131914
