8
02/13/2019 22:15, XYZ structure generated by mol3D Class, molSimplify
C 	-0.663213	-0.871220	0.004746
N 	0.715012	-1.045395	0.021457
C 	1.075469	0.284643	-0.069288
N 	0.009873	1.070012	0.087272
N 	-1.177854	0.335010	-0.058899
H 	-1.398309	-1.634725	0.160164
H 	2.073244	0.590727	-0.000838
H 	0.002239	2.102059	-0.083182
