9
02/13/2019 22:15, XYZ structure generated by mol3D Class, molSimplify
N 	-2.242634	-0.031664	0.074116
C 	-0.894562	-0.335745	0.020461
C 	0.076475	0.509847	0.069012
C 	1.439711	0.050156	-0.031009
N 	2.583890	-0.214354	-0.009946
H 	-2.995154	-0.743539	-0.808077
H 	-2.483821	0.968309	-0.358903
H 	-0.573459	-1.374423	-0.022615
H 	0.051357	1.559358	-0.398135
