13
03/25/2019 10:01, XYZ structure generated by mol3D Class, molSimplify
C 	0.790966	1.426695	0.097273
C 	0.794880	0.025496	-0.385959
O 	1.997931	-0.723897	-0.047524
C 	-0.294351	-0.879074	0.198305
C 	-1.619584	-0.241728	-0.017429
N 	-2.706136	0.258316	-0.040595
H 	-0.114667	2.017088	-0.095441
H 	0.916214	1.390780	1.152033
H 	1.677398	1.872976	-0.338439
H 	0.679848	-0.051986	-1.494217
H 	2.148562	-0.654448	0.861216
H 	-0.243684	-0.841940	1.278229
H 	-0.257596	-1.816983	-0.266000
