15
02/13/2019 22:15, XYZ structure generated by mol3D Class, molSimplify
C 	-1.951572	-0.498115	-0.071783
C 	-0.601669	-0.065800	0.449377
C 	0.000640	1.238335	-0.000378
C 	0.601378	-0.065390	-0.450073
C 	1.951228	-0.497345	0.072642
H 	-2.079264	-0.193824	-1.117149
H 	-2.766336	-0.045858	0.505244
H 	-2.069428	-1.586868	-0.025745
H 	-0.404440	-0.338147	1.486318
H 	-0.556103	1.831029	-0.722416
H 	0.557362	1.827654	0.724123
H 	0.406630	-0.339566	-1.487831
H 	2.066868	-1.586161	0.023699
H 	2.078091	-0.195367	1.119366
H 	2.766571	-0.045538	-0.503050
