12
02/13/2019 22:15, XYZ structure generated by mol3D Class, molSimplify
C 	-1.607039	-0.830850	0.206150
C 	-1.130803	0.475504	-0.427566
C 	0.125526	0.939584	0.319619
C 	1.280974	0.014206	-0.013291
N 	2.183661	-0.672283	-0.158954
H 	-2.088644	-0.433506	1.167118
H 	-0.594767	-1.502088	0.366599
H 	-2.353190	-1.490440	-0.520282
H 	-1.786755	1.245250	-0.370340
H 	-0.741768	0.441207	-1.463433
H 	0.082848	0.949713	1.480037
H 	0.415823	1.972070	0.097098
