17
03/25/2019 10:01, XYZ structure generated by mol3D Class, molSimplify
C 	1.281355	1.387599	0.114597
C 	0.957862	-0.058036	-0.033515
C 	2.138790	-0.984587	0.095603
C 	-0.268829	-0.527432	-0.322811
C 	-1.502661	0.273111	-0.406204
N 	-2.544071	-0.299538	0.418315
H 	0.473673	2.056666	-0.106707
H 	2.080311	1.662846	-0.605017
H 	1.623791	1.607216	1.138818
H 	3.043086	-0.603188	-0.456127
H 	2.403336	-1.046867	1.213299
H 	1.888848	-2.033437	-0.342245
H 	-0.438548	-1.602141	-0.470500
H 	-1.877912	0.245373	-1.418209
H 	-1.340534	1.347687	-0.186457
H 	-3.386643	0.189639	0.164262
H 	-2.393811	-0.260527	1.402016
