8
03/25/2019 10:02, XYZ structure generated by mol3D Class, molSimplify
O 	-2.015663	0.007365	0.002721
C 	-0.806840	-0.041804	-0.002081
N 	0.040295	-1.170317	-0.000103
N 	1.260263	-0.791513	0.002147
N 	1.324448	0.513038	-0.004127
N 	0.075677	1.038080	-0.005890
H 	2.178880	1.042560	0.052923
H 	-0.119303	2.027999	0.039451
