11
03/25/2019 10:02, XYZ structure generated by mol3D Class, molSimplify
C 	-2.068175	-0.045104	-0.005603
C 	-0.577163	-0.052541	0.005519
N 	0.128553	-1.167589	0.047630
C 	1.398039	-0.699791	-0.001782
C 	1.427226	0.652163	-0.006347
O 	0.116558	1.122022	-0.011765
H 	-2.442588	-0.837674	0.713428
H 	-2.296261	-0.284886	-1.078078
H 	-2.509342	0.970737	0.225495
H 	2.233622	-1.353464	-0.160826
H 	2.121863	1.463253	-0.077303
