11
02/13/2019 22:15, XYZ structure generated by mol3D Class, molSimplify
O 	2.143987	-0.077938	-0.128036
C 	1.041062	0.054505	0.331375
C 	-0.199237	0.076088	-0.479824
C 	-1.422822	0.741717	0.073351
C 	-1.316734	-0.765990	0.103219
H 	0.779991	-0.036568	1.408712
H 	-0.039842	0.118474	-1.519397
H 	-2.171558	1.284203	-0.526085
H 	-1.364101	1.213378	1.066121
H 	-1.120939	-1.220142	1.095061
H 	-1.895635	-1.388272	-0.561576
