11
03/25/2019 10:02, XYZ structure generated by mol3D Class, molSimplify
C 	-2.083468	-0.006785	-0.016978
C 	-0.597628	-0.088872	0.014841
N 	0.140660	-1.153621	0.012363
C 	1.437128	-0.675384	-0.001317
C 	1.419101	0.669605	-0.027265
O 	0.113861	1.063632	0.017954
H 	-2.503876	-0.533644	0.847053
H 	-2.474663	-0.476295	-0.933619
H 	-2.429707	1.040110	0.026047
H 	2.294927	-1.327789	-0.016205
H 	2.152282	1.466250	-0.014225
