8
02/13/2019 22:15, XYZ structure generated by mol3D Class, molSimplify
C 	-0.668358	-0.884172	0.021234
N 	0.703877	-1.002698	-0.024256
C 	1.076596	0.244353	0.021782
N 	-0.007456	1.059521	-0.020257
N 	-1.144484	0.352536	0.005393
H 	-1.368585	-1.734528	-0.036832
H 	2.066919	0.646080	0.075545
H 	-0.041476	2.089451	-0.007353
