8
02/13/2019 22:15, XYZ structure generated by mol3D Class, molSimplify
O 	1.221047	-0.801135	0.258946
N 	1.213362	0.548564	-0.236062
C 	0.051619	1.023285	-0.046378
C 	-1.216434	0.284489	0.294065
O 	-1.415601	-0.919538	-0.285398
H 	2.158030	-1.094404	-0.154053
H 	0.014902	2.112962	-0.418148
H 	-2.145318	1.048555	1.322760
