14
03/25/2019 10:01, XYZ structure generated by mol3D Class, molSimplify
C 	-2.964486	-0.159974	0.348579
O 	-1.614026	-0.510167	-0.191122
C 	-0.714228	0.590842	-0.285874
C 	0.697792	0.146226	-0.159551
C 	1.894925	0.028388	0.070686
C 	3.326414	-0.159657	0.160222
H 	-3.585815	-1.092806	0.370224
H 	-3.504820	0.626787	-0.287732
H 	-2.827873	0.242504	1.495252
H 	-0.844804	1.386488	0.491259
H 	-0.875426	1.132161	-1.256048
H 	4.117988	1.377465	-0.050732
H 	3.442627	-0.684869	1.729488
H 	3.809925	-1.171616	-1.054742
