11
02/11/2019 18:37, XYZ structure generated by mol3D Class, molSimplify
N 	-1.606854	-0.517121	0.055023
C 	-0.658479	0.518545	-0.316344
C 	0.731210	0.575220	0.341677
O 	1.478510	-0.610096	-0.072457
H 	-2.117082	-0.289217	0.990485
H 	-1.064649	-1.325753	0.064473
H 	-1.069793	1.513072	0.111744
H 	-0.501448	0.601465	-1.341530
H 	0.724743	0.539469	1.440040
H 	1.193594	1.478793	-0.165817
H 	1.720154	-0.366074	-0.982919
