10
02/11/2019 18:37, XYZ structure generated by mol3D Class, molSimplify
C 	-1.443970	-0.154793	-0.014394
C 	0.103518	0.100562	0.025121
N 	0.872160	-1.008493	-0.078182
N 	0.489602	1.334685	0.043761
H 	-1.732660	0.041376	-1.089585
H 	-1.691116	-1.255435	0.430995
H 	-1.889942	0.726568	0.658149
H 	0.502829	-1.943358	0.361972
H 	1.852358	-0.916517	-0.005847
H 	1.493544	1.510784	-0.005189
