13
03/25/2019 10:02, XYZ structure generated by mol3D Class, molSimplify
C 	1.999854	-0.034933	-0.344631
C 	0.766106	0.020570	0.504787
C 	-0.164901	-1.096204	0.133503
O 	-1.490908	-0.555402	-0.316203
N 	-1.412408	0.799277	-0.194099
C 	-0.196605	1.114641	0.227020
H 	1.554311	-0.212625	-1.330103
H 	2.527359	0.913567	-0.277626
H 	2.749926	-0.826787	-0.060620
H 	1.036257	0.092934	1.542033
H 	-0.510104	-1.455046	1.041753
H 	0.165802	-1.810000	-0.524945
H 	0.043780	2.203496	0.286338
