11
02/13/2019 22:15, XYZ structure generated by mol3D Class, molSimplify
N 	1.873712	-0.164810	0.150714
N 	0.614230	-0.702582	-0.152236
C 	-0.515192	0.132620	-0.049529
N 	-1.665753	-0.568776	0.205855
N 	-0.492467	1.442225	-0.014821
H 	2.097392	0.522723	-0.571970
H 	1.749218	0.309401	1.028391
H 	0.477718	-1.731440	-1.270774
H 	-1.543064	-1.596699	0.189761
H 	-2.543252	-0.172645	-0.710394
H 	0.504471	1.705658	-0.708467
