10
02/13/2019 22:15, XYZ structure generated by mol3D Class, molSimplify
O 	-2.077706	-0.206180	-0.034538
C 	-0.953453	0.214142	0.239347
C 	0.178609	0.009143	-0.546032
C 	1.295756	-0.650573	0.198501
N 	1.420616	0.735116	-0.049192
H 	-0.662617	0.648570	1.220993
H 	0.181728	-0.212061	-1.588863
H 	1.055308	-1.146514	1.137504
H 	1.798852	-1.445452	-0.427838
H 	0.960228	1.093351	0.803262
