11
02/13/2019 22:15, XYZ structure generated by mol3D Class, molSimplify
C 	2.184301	-0.091542	-0.001280
O 	0.843875	-0.513158	0.000825
C 	-0.035168	0.585559	0.000683
C 	-1.423619	0.115825	0.000589
C 	-2.572376	-0.241353	-0.000758
H 	2.419726	0.506534	-0.895914
H 	2.804236	-0.990833	0.002807
H 	2.420207	0.510547	0.891033
H 	0.136928	1.219766	-0.885326
H 	0.138045	1.218125	0.887455
H 	-3.589732	-0.565613	-0.004026
