8
02/11/2019 18:37, XYZ structure generated by mol3D Class, molSimplify
C 	-1.498253	0.307482	0.112749
N 	-0.622752	-0.472257	-0.323950
N 	0.601175	-0.450408	0.319752
C 	1.506711	0.326165	-0.105575
H 	-2.471587	0.329641	-0.376897
H 	-1.224138	1.077867	0.845983
H 	1.375147	1.106279	-0.891664
H 	2.519672	0.239075	0.395486
