10
02/13/2019 22:15, XYZ structure generated by mol3D Class, molSimplify
O 	1.450232	-0.942790	0.082810
C 	1.243041	0.401047	-0.365658
C 	-0.102292	0.949753	0.215374
C 	-1.271208	0.066677	0.022689
N 	-2.178386	-0.632714	-0.075709
H 	1.442435	-0.992695	1.092152
H 	1.213376	0.288499	-1.440158
H 	2.039870	1.112792	-0.037206
H 	-0.331350	1.951703	-0.145240
H 	-0.001367	1.110852	1.275798
