16
02/13/2019 22:15, XYZ structure generated by mol3D Class, molSimplify
C 	0.632061	1.478870	0.123890
C 	0.509207	0.043770	-0.326848
C 	1.723905	-0.844730	0.009339
C 	-0.772621	-0.581383	0.262268
N 	-2.062352	-0.120146	-0.237084
H 	0.929826	1.482248	1.238811
H 	1.394702	2.102402	-0.451194
H 	-0.390310	1.973900	-0.013830
H 	0.358144	0.120958	-1.377839
H 	1.933002	-0.875216	1.073763
H 	1.677678	-1.830282	-0.435261
H 	2.638685	-0.386494	-0.442994
H 	-0.723427	-0.583627	1.400343
H 	-0.851438	-1.648596	0.049181
H 	-2.711535	-0.856371	0.027341
H 	-2.456144	0.730307	0.230316
