18
03/25/2019 10:01, XYZ structure generated by mol3D Class, molSimplify
C 	-1.250246	-1.273235	-0.011538
C 	-0.420680	0.012846	0.010721
C 	-1.276754	1.271920	0.007563
C 	0.710705	-0.010833	-1.082630
C 	1.777033	-0.037279	-0.021042
C 	0.695195	0.022578	1.088580
H 	-1.927894	-1.292896	-0.855079
H 	-0.574999	-2.140464	0.019384
H 	-1.918724	-1.342793	0.865391
H 	-1.896643	1.388586	-0.916393
H 	-2.023131	1.223050	0.818978
H 	-0.696368	2.231336	0.135922
H 	0.719368	-0.870643	-1.766587
H 	0.675804	0.904729	-1.670351
H 	2.418011	-0.887705	-0.009319
H 	2.421082	0.854872	-0.051854
H 	0.694033	0.925122	1.713866
H 	0.640715	-0.826460	1.815403
