11
02/13/2019 22:15, XYZ structure generated by mol3D Class, molSimplify
C 	-0.002197	1.154081	0.189747
C 	-1.255517	0.237666	-0.154377
C 	-0.556411	-1.076725	0.104304
C 	0.757113	-0.956655	0.111422
O 	1.191028	0.379197	-0.223628
H 	0.102604	1.346075	1.424121
H 	-0.054769	2.237607	-0.438637
H 	-1.581859	0.465869	-1.289616
H 	-2.106295	0.493304	0.549966
H 	-1.111110	-1.964087	0.228923
H 	1.544650	-1.691531	0.084615
