11
02/13/2019 22:15, XYZ structure generated by mol3D Class, molSimplify
O 	-1.838754	0.358320	-0.013639
C 	-0.921327	-0.684607	-0.132863
C 	0.354154	-0.224326	0.509448
C 	1.622832	-0.332288	-0.128184
O 	0.916937	0.900717	-0.149600
H 	-1.407181	1.198275	-0.200768
H 	-0.793816	-1.010474	-1.209120
H 	-1.343098	-1.521023	0.373687
H 	0.335464	-0.160375	1.619603
H 	2.591886	-0.301361	0.387533
H 	1.713407	-0.853244	-1.072464
