12
03/25/2019 10:01, XYZ structure generated by mol3D Class, molSimplify
N 	2.007799	-0.395849	0.260030
C 	0.826980	0.163858	-0.096152
N 	0.734669	1.455693	-0.182449
N 	-0.162794	-0.852265	-0.316349
N 	-1.532935	-0.804337	-0.025226
C 	-2.052361	0.439661	0.286376
H 	2.870327	0.131206	0.352084
H 	1.895800	-1.482783	0.650267
H 	-0.183899	1.553490	-0.551491
H 	0.067493	-1.511546	-1.143406
H 	-1.468018	1.633485	0.512767
H 	-3.182761	0.175995	0.354451
