13
02/13/2019 22:15, XYZ structure generated by mol3D Class, molSimplify
C 	1.928817	-0.029531	-0.058144
N 	0.630283	-0.658042	0.105498
C 	-0.635337	-0.112359	0.018338
C 	-0.661704	1.386981	0.009583
N 	-1.723667	-0.742370	-0.053081
H 	1.831077	0.591989	-0.942902
H 	2.640833	-0.859783	-0.124444
H 	2.200853	0.639645	0.777560
H 	0.674304	-1.697498	0.076341
H 	-0.126482	1.826138	-0.851337
H 	-1.659661	1.791620	0.052660
H 	-0.146306	1.747917	0.854551
H 	-1.577379	-1.760077	-0.210885
