12
03/25/2019 10:01, XYZ structure generated by mol3D Class, molSimplify
N 	2.910869	0.179980	0.024027
N 	1.637212	-0.495019	-0.062000
C 	0.584617	0.244052	-0.110803
N 	-0.644995	-0.327774	-0.048083
N 	-1.781116	0.508534	-0.077069
C 	-2.964679	-0.075191	0.142419
H 	2.961153	0.995610	0.672937
H 	3.582608	-0.490779	0.443812
H 	0.456804	1.320101	-0.236471
H 	-0.777806	-1.361122	-0.083919
H 	-3.806667	0.554526	0.257229
H 	-3.048479	-1.151254	0.442492
