12
02/13/2019 22:15, XYZ structure generated by mol3D Class, molSimplify
C 	-1.096619	-1.219051	-0.160839
C 	-0.419468	0.051379	0.414191
N 	-0.996819	1.230297	-0.289524
C 	1.044018	-0.004732	0.155250
C 	2.233513	-0.060833	-0.135292
H 	-0.944818	-1.186517	-1.261678
H 	-2.170536	-1.117139	0.085614
H 	-0.750605	-2.165954	0.295514
H 	-0.585919	0.046381	1.516410
H 	-1.949732	1.329516	0.105313
H 	-0.479025	2.043983	0.050462
H 	3.272936	-0.180015	-0.445134
