12
03/25/2019 10:01, XYZ structure generated by mol3D Class, molSimplify
C 	1.153244	1.281102	0.069539
C 	0.865953	-0.195268	-0.021153
O 	1.721646	-1.049963	0.065787
C 	-0.565508	-0.607666	-0.245092
C 	-1.625699	-0.140492	0.658002
O 	-1.479210	0.404156	-0.637919
H 	0.506572	1.771382	0.804283
H 	0.945045	1.750562	-0.898292
H 	2.202100	1.426914	0.336297
H 	-0.683277	-1.574932	-0.734120
H 	-2.500921	-0.769394	0.812015
H 	-1.380174	0.530436	1.480878
