14
03/25/2019 10:01, XYZ structure generated by mol3D Class, molSimplify
C 	-1.349139	-1.172436	-0.526570
C 	-1.139967	-0.191615	0.647880
C 	0.088578	0.719684	0.497496
O 	-0.333616	1.717126	-0.471209
C 	1.247545	-0.187771	0.057201
C 	2.171128	-1.018761	-0.108431
H 	-2.223643	-1.859631	-0.243818
H 	-1.386685	-0.610622	-1.459584
H 	-0.481890	-1.840800	-0.591737
H 	-0.876234	-0.708252	1.548429
H 	-2.040251	0.427006	0.802476
H 	0.367089	1.219042	1.450468
H 	0.528139	2.162237	-0.764246
H 	3.045422	-1.591561	-0.280207
