13
02/13/2019 22:15, XYZ structure generated by mol3D Class, molSimplify
C 	0.720499	-1.009927	0.209736
C 	-0.748246	-0.979179	-0.303701
C 	-1.126929	0.406117	0.339982
O 	-0.030720	1.241100	-0.291558
C 	1.178657	0.448441	0.031971
H 	1.311622	-1.759824	-0.282582
H 	0.690480	-1.256691	1.301329
H 	-1.342143	-1.822765	0.102372
H 	-0.872007	-0.837993	-1.454303
H 	-2.191313	0.876442	0.035805
H 	-1.147549	0.352026	1.489841
H 	1.766584	0.765136	0.990989
H 	1.986338	0.640767	-0.866180
