9
02/13/2019 22:15, XYZ structure generated by mol3D Class, molSimplify
C 	0.927013	1.242006	0.013466
C 	0.522006	-0.144021	0.005582
O 	1.314953	-1.035743	0.009162
C 	-0.951999	-0.539320	0.048631
O 	-1.919255	0.201571	-0.071516
H 	-0.048222	1.878487	-0.424042
H 	2.030523	1.403527	-0.608070
H 	1.116340	1.762503	1.200140
H 	-0.976674	-1.709225	0.015778
