11
02/13/2019 22:15, XYZ structure generated by mol3D Class, molSimplify
C 	-1.971470	-0.454601	-0.055501
C 	-0.999888	0.550828	0.172191
C 	0.373583	0.537054	-0.391500
C 	1.542414	0.172699	0.529672
O 	0.998982	-0.783967	-0.352893
H 	-1.781659	-1.418277	-1.131302
H 	-2.915528	-0.359474	0.510256
H 	-1.280036	1.549007	1.024244
H 	0.511738	1.225717	-1.289415
H 	1.166434	0.054470	1.588874
H 	2.481569	0.691041	0.273238
