13
02/13/2019 22:15, XYZ structure generated by mol3D Class, molSimplify
C 	-1.764472	-0.668502	0.015507
C 	-0.393859	-0.030253	-0.023378
C 	-0.306729	1.467328	-0.004670
N 	0.610736	-0.830938	-0.015537
N 	1.876599	-0.229981	-0.085451
H 	-1.706630	-1.776657	0.120104
H 	-2.311350	-0.220043	0.878986
H 	-2.328140	-0.414566	-0.890300
H 	0.351982	1.788341	-0.834066
H 	0.195492	1.788929	0.931438
H 	-1.301878	1.937855	-0.090060
H 	2.542886	-0.891969	0.274463
H 	1.934067	0.628606	0.450136
