12
03/25/2019 10:01, XYZ structure generated by mol3D Class, molSimplify
C 	1.263817	1.380113	0.024914
N 	1.147350	-0.057818	-0.373074
C 	0.922899	-1.132288	0.545074
C 	-0.110961	-0.708531	-0.452549
C 	-1.386640	0.016245	-0.054315
N 	-2.517995	0.330311	0.167196
H 	0.809428	1.995661	-0.818825
H 	0.675489	1.498372	0.954590
H 	2.343006	1.567565	0.052684
H 	0.776506	-0.934151	1.648802
H 	1.343603	-2.147103	0.352707
H 	-0.321863	-1.370254	-1.241249
