10
02/13/2019 22:15, XYZ structure generated by mol3D Class, molSimplify
N 	1.678009	-0.482510	-0.047147
C 	0.432984	0.111351	-0.035224
N 	0.265317	1.370974	0.010881
N 	-0.605134	-0.816303	-0.145336
O 	-1.865935	-0.091597	0.060279
H 	2.353161	-0.321290	0.965948
H 	1.549288	-1.513345	-0.079540
H 	1.115108	1.922885	-0.295960
H 	-0.538143	-1.601722	0.489586
H 	-1.588742	0.922105	-0.125446
