16
02/13/2019 22:15, XYZ structure generated by mol3D Class, molSimplify
C 	-2.408231	-0.376537	0.161862
C 	-1.259719	0.596713	-0.178270
C 	0.028967	-0.237908	-0.128965
N 	1.265631	0.516410	-0.040879
C 	2.398960	-0.321114	0.068969
H 	-3.334739	0.256157	0.317524
H 	-2.586627	-1.057048	-0.653133
H 	-2.195173	-1.007043	1.105669
H 	-1.334034	1.014208	-1.229002
H 	-1.235573	1.346992	0.644538
H 	-0.066442	-1.072723	0.687399
H 	-0.038948	-0.841404	-1.117328
H 	1.205189	1.222711	0.653568
H 	3.249208	0.311034	0.296275
H 	2.519404	-0.843037	-0.858068
H 	2.224388	-1.097860	0.922295
