10
02/11/2019 18:37, XYZ structure generated by mol3D Class, molSimplify
C 	1.785563	-0.370600	0.275451
C 	0.651382	0.312184	0.120000
C 	-0.652195	-0.312914	-0.117129
C 	-1.785018	0.371106	-0.277978
H 	2.734097	0.129929	0.449202
H 	1.802918	-1.457640	0.233268
H 	0.664121	1.401576	0.164206
H 	-0.662972	-1.402948	-0.161639
H 	-1.801393	1.458777	-0.235534
H 	-2.733581	-0.127035	-0.453614
