14
02/13/2019 22:15, XYZ structure generated by mol3D Class, molSimplify
C 	1.188998	-1.043523	-0.274103
C 	0.568803	0.084734	0.504290
O 	0.744964	1.291523	-0.238313
C 	-0.921936	-0.093268	0.694539
N 	-1.617522	-0.236695	-0.599435
H 	2.246599	-0.886815	-0.384583
H 	1.042379	-2.015645	0.198302
H 	0.726368	-1.103873	-1.269528
H 	0.966916	0.251324	1.500933
H 	1.644760	1.241499	-0.653273
H 	-1.057978	-1.008409	1.327430
H 	-1.292625	0.719379	1.342903
H 	-2.653110	-0.076034	-0.413457
H 	-1.293229	0.598335	-1.122272
