18
03/25/2019 10:01, XYZ structure generated by mol3D Class, molSimplify
C 	-1.347481	-1.278052	-0.004632
C 	-0.395341	-0.043698	-0.004565
C 	-1.128739	1.257577	0.011919
C 	0.678033	-0.038403	-1.137765
C 	1.731308	0.152492	0.001231
C 	0.656247	-0.055429	1.110600
H 	-1.873982	-1.450942	-0.942231
H 	-0.703729	-2.182257	0.421771
H 	-2.104716	-0.982799	0.791216
H 	-1.887498	1.297261	-0.865910
H 	-1.746606	1.264043	0.917845
H 	-0.421304	2.099490	0.005600
H 	0.952802	-0.994547	-1.660664
H 	0.626170	0.883381	-1.779478
H 	2.453765	-0.637650	-0.074672
H 	2.259307	1.078900	-0.006986
H 	0.580788	0.746137	1.879634
H 	0.887123	-1.055383	1.590251
