13
02/13/2019 22:15, XYZ structure generated by mol3D Class, molSimplify
C 	-1.838115	-0.091862	-0.001295
O 	-0.611296	-0.788869	0.003136
C 	0.562319	-0.084662	-0.000983
C 	0.504458	1.418311	0.000729
C 	1.702754	-0.775800	-0.001318
H 	-1.959112	0.533077	-0.895888
H 	-2.615462	-0.859073	-0.004274
H 	-1.967052	0.533716	0.890484
H 	-0.019074	1.805030	0.880862
H 	-0.009726	1.807238	-0.885005
H 	1.518676	1.821302	0.005094
H 	2.658664	-0.266237	-0.002775
H 	1.692719	-1.860198	-0.004099
