10
02/13/2019 22:15, XYZ structure generated by mol3D Class, molSimplify
C 	-0.976314	-0.721508	-0.010234
C 	-0.972401	0.707045	-0.020579
C 	0.337384	1.117846	0.032640
N 	1.120359	-0.017701	0.002950
C 	0.300238	-1.079801	0.011652
H 	-1.787141	-1.455157	0.032407
H 	-1.853114	1.371151	0.004593
H 	0.729646	2.114582	-0.034983
H 	2.143996	-0.032878	-0.241728
H 	0.847009	-2.032537	0.038227
