13
02/11/2019 18:37, XYZ structure generated by mol3D Class, molSimplify
C 	-0.151722	1.364267	0.056999
N 	-0.002282	-0.009394	-0.386347
C 	1.268587	-0.522016	0.075445
C 	-1.118480	-0.835351	0.061224
H 	0.664987	2.009031	-0.318858
H 	-0.119265	1.486144	1.151181
H 	-1.110475	1.769296	-0.267471
H 	2.078539	0.079915	-0.384613
H 	1.379004	-1.566746	-0.264793
H 	1.386986	-0.525253	1.169013
H 	-2.070097	-0.413376	-0.283881
H 	-1.006405	-1.807175	-0.420989
H 	-1.152376	-0.983407	1.143635
