16
03/25/2019 10:01, XYZ structure generated by mol3D Class, molSimplify
C 	-1.443442	0.017096	0.407073
C 	-0.701699	-1.318808	-0.202821
C 	0.763000	-0.736499	-0.380011
C 	1.466620	0.034434	0.682791
C 	0.778375	0.762562	-0.433067
C 	-0.633578	1.268452	-0.145957
H 	-2.485004	-0.019387	-0.064423
H 	-1.425012	-0.131445	1.472737
H 	-0.758149	-2.101568	0.543301
H 	-1.268191	-1.666842	-1.066109
H 	1.385226	-1.294528	-1.169958
H 	2.550580	0.024585	0.682407
H 	0.997819	-0.060096	1.728323
H 	1.272548	1.292672	-1.308257
H 	-0.754989	2.134414	0.607115
H 	-1.046738	1.497885	-1.087332
