13
02/13/2019 22:15, XYZ structure generated by mol3D Class, molSimplify
C 	-1.645562	-0.703887	-0.002746
N 	-0.381203	0.005016	0.001166
C 	-0.319173	1.449298	0.000012
C 	0.788324	-0.709949	0.004375
N 	1.995661	-0.292049	-0.002072
H 	-2.463926	0.019177	-0.001564
H 	-1.758957	-1.338480	0.885606
H 	-1.755645	-1.335386	-0.894381
H 	0.212636	1.824610	0.885855
H 	-1.330693	1.857857	0.013515
H 	0.191104	1.830654	-0.895061
H 	0.623689	-1.791549	0.008809
H 	2.040873	0.728878	-0.009741
