13
02/13/2019 22:15, XYZ structure generated by mol3D Class, molSimplify
C 	-1.512605	-0.856949	-0.057166
C 	-1.249592	0.590351	0.187551
C 	0.091432	0.905892	-0.365284
C 	1.130428	0.031631	0.368594
O 	1.985246	-0.618949	-0.162963
H 	-1.281891	-1.172538	-1.094759
H 	-2.580295	-0.940136	0.030718
H 	-0.846022	-1.412851	0.609231
H 	-2.168595	1.178062	-0.031531
H 	-1.218413	0.806210	1.306623
H 	0.423414	1.911994	-0.246445
H 	0.321436	0.715055	-1.458931
H 	1.001014	-0.207041	1.454417
