11
02/13/2019 22:15, XYZ structure generated by mol3D Class, molSimplify
N 	-1.945215	-0.521956	-0.118138
N 	-1.349331	0.693363	0.002319
C 	-0.065110	0.688051	0.037310
C 	0.897668	-0.505124	-0.026742
O 	2.245593	-0.031928	0.083217
H 	-2.842551	-0.381390	0.422960
H 	-1.391363	-1.200627	0.455149
H 	0.430015	1.713190	0.023492
H 	0.891612	-1.247341	0.847017
H 	0.763474	-1.167183	-0.891460
H 	2.643078	0.091359	-0.846567
