13
03/25/2019 10:01, XYZ structure generated by mol3D Class, molSimplify
C 	1.850183	-0.614596	-0.130086
O 	1.084064	0.586545	-0.197092
C 	-0.168900	0.460837	0.350418
C 	-0.981094	1.673209	-0.191676
C 	-0.942866	-0.795340	0.124337
N 	-1.417180	-1.832109	-0.007013
H 	1.657158	-1.500075	-1.463258
H 	1.295186	-1.580934	1.209493
H 	3.018491	0.137419	-0.079048
H 	-0.185921	0.506581	1.406838
H 	-2.230271	1.443318	-0.217012
H 	-0.705299	2.729982	0.593480
H 	-0.501344	1.796862	-1.404233
