10
02/11/2019 18:37, XYZ structure generated by mol3D Class, molSimplify
C 	-1.689416	0.089577	0.132926
O 	-0.444655	-0.474829	-0.160828
C 	0.596116	0.364512	-0.156722
C 	1.876346	-0.086284	0.160397
H 	-2.174313	-0.360090	1.031538
H 	-1.644340	1.182945	0.374055
H 	-2.387216	-0.121906	-0.645965
H 	0.269319	1.437380	-0.328911
H 	2.677252	0.573895	-0.054742
H 	2.037038	-1.158425	0.549986
