10
02/13/2019 22:15, XYZ structure generated by mol3D Class, molSimplify
C 	-2.211806	-0.016126	0.080625
C 	-0.956271	-0.458227	-0.061898
N 	0.024046	0.587610	-0.095509
C 	1.320578	0.427692	0.079305
O 	1.930540	-0.679002	0.001052
H 	-3.078642	-0.810671	0.145936
H 	-2.442297	1.053544	-0.078584
H 	-0.472385	-1.476399	-0.174220
H 	-0.474835	1.514089	0.081374
H 	1.801656	1.404019	0.168590
