9
02/13/2019 22:15, XYZ structure generated by mol3D Class, molSimplify
O 	-1.633713	-0.602080	-0.001810
C 	-0.497851	0.132351	0.000550
O 	-0.553030	1.333718	0.001143
C 	0.778394	-0.646374	0.003707
C 	1.942165	-0.005698	-0.002880
H 	-1.427331	-1.546450	-0.006029
H 	0.735559	-1.734953	0.008347
H 	2.890078	-0.535198	0.000149
H 	1.958787	1.081537	-0.008301
