10
02/13/2019 22:15, XYZ structure generated by mol3D Class, molSimplify
N 	-2.204834	0.029818	-0.268565
C 	-1.141664	-0.035232	0.160723
C 	0.224741	0.002585	0.618037
C 	1.210926	0.764123	-0.229614
C 	1.256738	-0.761364	-0.255001
H 	0.336770	0.042092	1.680943
H 	2.063881	1.241645	0.273616
H 	0.784776	1.260144	-1.087547
H 	0.824662	-1.408564	-1.047086
H 	2.037750	-1.193743	0.325941
