13
03/25/2019 10:01, XYZ structure generated by mol3D Class, molSimplify
C 	2.243500	-0.097832	-0.330753
C 	0.871044	0.017019	0.411322
C 	-0.135696	1.120703	0.060389
C 	-1.105169	-0.013328	-0.050300
O 	-2.308434	-0.074080	-0.156440
N 	-0.135760	-0.974392	0.023773
H 	3.008465	0.651635	0.027115
H 	2.170350	0.055623	-1.406690
H 	2.648811	-1.066105	-0.009664
H 	1.028071	0.130809	1.563837
H 	-0.310584	1.833785	0.896134
H 	0.018282	1.579146	-0.918115
H 	-0.362686	-1.869139	0.821538
