13
02/13/2019 22:15, XYZ structure generated by mol3D Class, molSimplify
C 	2.111119	0.003465	0.128047
C 	0.458190	0.093430	0.253653
C 	-0.529599	0.944085	-0.429567
O 	-1.826308	-0.000124	0.490991
C 	-0.514594	-1.015593	-0.437221
H 	2.847834	0.703332	0.876234
H 	2.300809	0.204505	-0.966919
H 	2.281733	-1.151898	0.504480
H 	0.096352	0.045942	1.403343
H 	-0.371309	0.683911	-1.918302
H 	-0.288677	2.300228	-0.125276
H 	-0.260856	-2.386610	-0.035567
H 	-0.500635	-0.699712	-1.901267
