12
03/25/2019 10:01, XYZ structure generated by mol3D Class, molSimplify
C 	1.143123	1.281856	0.009645
N 	1.213606	-0.066838	-0.396147
C 	0.795608	-1.092624	0.581487
C 	-0.098596	-0.682776	-0.494317
C 	-1.265437	0.072614	-0.050538
N 	-2.441374	0.287508	0.217569
H 	0.745289	1.968248	-0.827731
H 	0.693302	1.483192	0.961339
H 	2.200099	1.807358	0.066305
H 	0.458114	-0.799897	1.566984
H 	1.276317	-2.099426	0.410466
H 	-0.369796	-1.309518	-1.407368
