9
02/13/2019 22:15, XYZ structure generated by mol3D Class, molSimplify
C 	-1.145461	-0.024436	0.125478
O 	-0.313421	1.202736	-0.119998
C 	0.982146	0.623007	0.064733
C 	0.980370	-0.665324	0.026314
O 	-0.317512	-1.146587	-0.101325
H 	-1.563405	-0.116233	1.178856
H 	-1.945761	-0.031784	-0.684505
H 	1.831098	1.347470	0.206266
H 	1.954311	-1.295764	0.233815
