11
02/13/2019 22:15, XYZ structure generated by mol3D Class, molSimplify
C 	-2.406953	-0.233558	-0.028747
C 	-1.068619	0.469400	-0.028348
C 	0.066592	-0.275726	0.097723
C 	1.418792	0.331090	0.072395
O 	2.467695	-0.292893	-0.079712
H 	-2.905880	0.061921	0.915885
H 	-3.010664	0.163814	-0.826787
H 	-2.237947	-1.282649	-0.190670
H 	-0.979887	1.530211	-0.311745
H 	-0.022996	-1.333721	0.179173
H 	1.438618	1.433206	0.153459
