10
02/11/2019 18:37, XYZ structure generated by mol3D Class, molSimplify
C 	-1.408332	-0.149330	0.000164
C 	0.079666	0.118983	-0.000127
N 	0.868368	-1.006889	0.000072
N 	0.486922	1.330160	-0.000003
H 	-1.859306	0.312140	-0.882131
H 	-1.649555	-1.216512	-0.000150
H 	-1.859843	0.313395	0.881073
H 	0.472591	-1.930776	-0.000066
H 	1.872373	-0.930124	-0.001289
H 	1.508343	1.371495	0.001129
