11
02/13/2019 22:15, XYZ structure generated by mol3D Class, molSimplify
N 	2.314614	0.274325	-0.184957
N 	1.115040	-0.483398	0.000297
C 	0.026146	0.138614	0.113186
C 	-1.292787	-0.415843	0.111553
C 	-2.462343	0.279963	-0.105868
H 	2.404750	0.944051	0.969826
H 	3.013638	-0.644019	-0.243756
H 	0.235910	1.255268	0.117516
H 	-1.272910	-1.459986	0.279406
H 	-3.396678	-0.261989	-0.353133
H 	-2.528690	1.405713	-0.235022
