12
02/13/2019 22:15, XYZ structure generated by mol3D Class, molSimplify
C 	-1.934003	-0.016585	-0.012083
N 	-0.631435	-0.656493	0.023120
C 	0.519276	0.102689	0.033880
N 	1.694429	-0.630575	-0.030812
N 	0.396858	1.376741	-0.010783
H 	-2.093387	0.549657	0.920109
H 	-2.702402	-0.773419	-0.182140
H 	-1.934692	0.770394	-0.823882
H 	-0.548192	-1.668684	0.036599
H 	2.580364	-0.139854	-0.007172
H 	1.718300	-1.638827	0.097883
H 	1.301662	1.835289	-0.044269
