13
02/13/2019 22:15, XYZ structure generated by mol3D Class, molSimplify
C 	2.056209	0.148631	-0.004137
O 	0.813223	-0.529886	-0.276984
C 	-0.329995	-0.132394	0.529945
C 	-1.251591	0.924209	-0.114126
C 	-1.588763	-0.533287	-0.135459
H 	2.152482	1.227444	-0.567453
H 	2.182477	0.172827	1.093375
H 	2.851591	-0.607029	-0.340658
H 	-0.142627	-0.052195	1.638084
H 	-1.974750	1.515072	0.439207
H 	-0.964174	1.358947	-1.108953
H 	-2.416852	-1.062325	0.464682
H 	-1.410446	-1.188482	-1.065308
