12
02/13/2019 22:15, XYZ structure generated by mol3D Class, molSimplify
N 	1.542048	-0.907587	0.185952
C 	1.175821	0.365693	-0.416469
C 	-0.076847	0.942887	0.251647
C 	-1.272187	0.114838	0.067199
C 	-2.263087	-0.547643	-0.100791
H 	2.302105	-1.336595	-0.331652
H 	1.880223	-0.761021	1.133224
H 	0.962279	0.191376	-1.476211
H 	1.968505	1.133483	-0.367012
H 	0.112445	1.071859	1.326121
H 	-0.267881	1.946447	-0.149091
H 	-3.134544	-1.148263	-0.244571
