11
02/13/2019 22:15, XYZ structure generated by mol3D Class, molSimplify
O 	-2.225509	0.084833	0.002256
C 	-0.940115	-0.502212	-0.002599
C 	0.065161	0.645496	-0.002054
C 	1.448145	0.163825	-0.000720
C 	2.575412	-0.258982	0.002084
H 	-2.879285	-0.624772	0.009838
H 	-0.777953	-1.128013	-0.893001
H 	-0.776184	-1.132939	0.883689
H 	-0.116508	1.272025	0.879566
H 	-0.115185	1.273899	-0.882078
H 	3.577837	-0.629300	0.005273
