13
03/25/2019 10:01, XYZ structure generated by mol3D Class, molSimplify
C 	2.415879	-0.039397	-0.135179
C 	0.874940	-0.029726	0.390951
C 	-0.090123	1.063782	-0.152138
C 	-1.185251	0.050511	-0.076023
O 	-2.446384	-0.097184	0.069809
N 	-0.114614	-0.980184	-0.195891
H 	3.189697	0.643274	0.531805
H 	2.365751	0.533366	-1.231973
H 	2.732961	-1.201519	-0.153571
H 	0.805020	-0.071062	1.521248
H 	-0.342131	1.845664	0.509874
H 	0.283985	1.550756	-1.063503
H 	-0.627016	-1.759128	1.072299
