17
03/25/2019 10:01, XYZ structure generated by mol3D Class, molSimplify
C 	-0.931298	1.461519	0.129576
C 	-0.400001	-0.014162	-0.008355
C 	-1.502581	-1.056890	-0.085246
C 	0.696561	-0.295607	1.016052
C 	1.727602	-0.005176	-0.078366
N 	0.614369	-0.236296	-1.060473
H 	-1.671131	1.485285	0.992861
H 	-1.388378	1.852341	-0.796267
H 	-0.001635	2.021060	0.530100
H 	-2.033353	-1.052350	0.903245
H 	-2.284567	-0.834855	-0.884321
H 	-1.112029	-2.049252	-0.315716
H 	0.693369	0.266784	1.974243
H 	0.766953	-1.355837	1.309846
H 	2.166627	1.016000	0.029843
H 	2.488969	-0.757365	-0.161648
H 	0.587684	0.433573	-1.790980
