8
02/13/2019 22:15, XYZ structure generated by mol3D Class, molSimplify
C 	-2.480824	-0.001936	0.003622
C 	-1.021050	0.002235	-0.006404
C 	0.184375	0.001777	-0.002979
C 	1.567292	0.002512	0.001174
N 	2.726942	-0.003127	0.002423
H 	-2.869683	0.940496	-0.393735
H 	-2.865548	-0.822354	-0.611229
H 	-2.849461	-0.129251	1.025964
