12
03/25/2019 10:01, XYZ structure generated by mol3D Class, molSimplify
C 	-0.875516	-0.917269	0.352420
C 	-1.316039	0.432540	-0.184637
N 	-0.279126	1.438622	0.003854
C 	0.904264	0.984484	0.100269
N 	1.330587	-0.322381	-0.111123
O 	0.339229	-1.291297	-0.296261
H 	-0.727131	-0.870464	1.439546
H 	-1.585854	-1.717345	0.121924
H 	-2.230201	0.773804	0.316734
H 	-1.544423	0.338793	-1.255869
H 	1.738391	1.653764	0.310254
H 	1.997568	-0.664030	0.574579
