10
02/11/2019 18:37, XYZ structure generated by mol3D Class, molSimplify
C 	-1.712465	0.101446	-0.205051
O 	-0.456024	-0.522698	0.215947
C 	0.646141	0.369909	0.279328
C 	1.868180	-0.069432	-0.250976
H 	-2.547310	0.150566	0.701246
H 	-1.582574	1.222971	-0.610330
H 	-2.132369	-0.422596	-1.182288
H 	0.230055	1.401649	0.626503
H 	2.676512	0.612692	-0.161825
H 	2.089903	-1.058024	-0.696622
