17
03/25/2019 10:02, XYZ structure generated by mol3D Class, molSimplify
N 	2.868707	-0.162775	0.150821
C 	1.467123	-0.607719	-0.007079
C 	0.749585	0.823640	0.095697
C 	-0.744241	0.853221	-0.150753
C 	-1.494331	-0.586043	-0.054230
O 	-2.957340	-0.323070	-0.025268
H 	3.224301	0.494634	-0.559092
H 	3.481982	-0.979876	-0.050664
H 	1.372066	-1.304441	1.077016
H 	1.316604	-1.252132	-0.998903
H 	0.924703	1.335806	1.169728
H 	1.430917	1.502441	-0.665556
H 	-1.065887	1.329878	-1.280661
H 	-1.170618	1.720155	0.623894
H 	-1.189641	-1.195514	-1.261589
H 	-0.994475	-1.415419	0.972496
H 	-3.219037	0.366403	0.804573
