9
02/13/2019 22:15, XYZ structure generated by mol3D Class, molSimplify
C 	1.799865	-0.582645	0.080130
N 	1.244624	0.537865	-0.281359
N 	-0.012128	0.699381	0.333238
C 	-0.943663	-0.257491	-0.142068
O 	-2.137338	-0.254326	-0.020588
H 	2.742352	-0.773870	-0.367911
H 	1.328218	-1.155426	1.071526
H 	-0.427801	1.680698	-0.050736
H 	-0.376440	-1.207665	-0.405833
