13
02/13/2019 22:15, XYZ structure generated by mol3D Class, molSimplify
C 	-0.994947	1.452250	0.216749
C 	-0.552416	-0.063659	0.120143
C 	-1.300873	-1.111412	-0.347995
C 	0.888719	-0.241253	0.626083
O 	1.818006	-0.135234	-0.554394
H 	-2.142053	1.522972	1.499359
H 	-1.530059	1.728674	-1.239587
H 	0.377237	2.224975	0.497324
H 	-0.839097	-2.079458	-0.336262
H 	-2.284996	-0.939207	-0.646664
H 	1.167917	0.707815	1.405190
H 	0.980910	-1.203531	1.417681
H 	1.394379	-0.720920	-1.363140
