13
02/13/2019 22:15, XYZ structure generated by mol3D Class, molSimplify
N 	-2.041583	0.376002	0.127411
C 	-0.970555	-0.490062	-0.328231
C 	0.303404	-0.119204	0.326410
C 	1.398852	0.822211	-0.222852
N 	1.659605	-0.594860	-0.052806
H 	-3.045086	0.107113	-0.276216
H 	-2.139340	0.168036	1.127064
H 	-1.101516	-1.610625	-0.015744
H 	-0.866475	-0.363856	-1.364177
H 	0.167305	0.023909	1.429429
H 	1.144462	1.238930	-1.276923
H 	1.729028	1.545579	0.606977
H 	2.160532	-0.827268	0.766358
