13
03/25/2019 10:01, XYZ structure generated by mol3D Class, molSimplify
C 	1.102081	1.436917	0.217518
C 	0.850259	0.071661	-0.308022
O 	2.006607	-0.731324	-0.245788
C 	-0.362477	-0.738217	0.441434
C 	-1.816452	-0.243191	0.024821
N 	-2.892810	0.047776	-0.270131
H 	0.304549	2.232235	0.179587
H 	1.673800	1.365068	1.269075
H 	1.828594	1.931177	-0.506178
H 	0.497145	0.089705	-1.382725
H 	2.402355	-0.490395	0.655042
H 	-0.282874	-0.738595	1.497342
H 	-0.370005	-1.761633	-0.036574
