10
02/13/2019 22:15, XYZ structure generated by mol3D Class, molSimplify
N 	-2.143738	-0.093787	-0.298442
C 	-1.113136	0.072905	0.205195
C 	0.205825	0.064412	0.645926
C 	1.251865	0.725622	-0.213396
C 	1.141927	-0.737563	-0.306120
H 	0.308412	-0.035805	1.697854
H 	2.214348	1.201645	0.256368
H 	0.893592	1.219560	-1.013958
H 	0.715904	-1.298225	-1.177711
H 	1.831818	-1.276899	0.352416
