9
02/11/2019 18:17, XYZ structure generated by mol3D Class, molSimplify
C 	-0.047045	-0.867102	-0.000048
C 	0.772842	0.393971	0.000515
C 	-0.725605	0.473191	-0.000018
H 	-0.080722	-1.458750	0.911450
H 	-0.076754	-1.453474	-0.911213
H 	1.297411	0.655691	-0.913710
H 	1.301653	0.664744	0.908901
H 	-1.222302	0.792964	0.909266
H 	-1.221599	0.798198	-0.910046
