12
02/13/2019 22:15, XYZ structure generated by mol3D Class, molSimplify
N 	1.979828	-0.036796	-0.005796
C 	0.722031	-0.751233	0.021964
C 	-0.528679	0.117712	0.000993
N 	-1.710231	-0.597239	-0.082416
N 	-0.401892	1.386950	0.016964
H 	1.960239	0.653202	0.742236
H 	1.999977	0.526482	-0.852545
H 	0.678054	-1.441901	-0.829556
H 	0.689484	-1.379349	0.923618
H 	-2.560529	-0.114300	0.169689
H 	-1.688771	-1.563609	0.208804
H 	-1.312429	1.850734	-0.003721
