12
02/11/2019 18:37, XYZ structure generated by mol3D Class, molSimplify
N 	1.935976	-0.055513	0.067698
C 	0.611042	0.550580	-0.101831
C 	-0.583222	-0.470737	-0.033851
N 	-1.919849	0.128796	-0.063096
H 	2.027053	-0.610267	0.917341
H 	2.146093	-0.803093	-0.656615
H 	0.654698	1.064533	-1.073209
H 	0.627423	1.320595	0.675400
H 	-0.582824	-1.098447	0.856923
H 	-0.384206	-1.051502	-0.915370
H 	-2.662015	-0.577237	0.366544
H 	-1.882798	0.768861	0.720316
