11
02/13/2019 22:15, XYZ structure generated by mol3D Class, molSimplify
N 	1.859072	-0.124320	-0.100614
N 	0.600113	-0.718395	0.120129
C 	-0.482301	0.138018	-0.036809
N 	-1.667803	-0.573443	-0.107524
N 	-0.482675	1.382255	0.040961
H 	1.979625	0.482275	-0.957418
H 	2.072600	0.415275	0.769160
H 	0.452736	-1.675311	0.722328
H 	-1.875389	-1.596900	-0.050081
H 	-2.479708	0.072140	0.360575
H 	0.492975	1.830450	0.247380
