8
02/13/2019 22:15, XYZ structure generated by mol3D Class, molSimplify
C 	-0.163333	1.168050	-0.016386
C 	1.081548	0.443525	-0.013179
N 	0.807135	-0.850540	0.005786
O 	-0.538102	-1.029925	0.021779
C 	-1.058942	0.216791	-0.029274
H 	-0.527744	2.260416	0.373066
H 	2.067727	0.857620	-0.056465
H 	-2.121465	0.087453	-0.042054
