14
03/25/2019 10:01, XYZ structure generated by mol3D Class, molSimplify
C 	0.223539	1.916006	0.148279
C 	0.000224	0.398002	-0.288490
C 	-1.172679	-0.128614	0.415446
C 	-2.108893	-1.080110	-0.214314
C 	1.224365	-0.468146	-0.037807
C 	2.290931	-1.098929	-0.050252
H 	0.845809	2.447863	-0.709992
H 	0.857553	2.010536	1.121163
H 	-0.872751	2.318934	0.323320
H 	-0.262682	0.351471	-1.385745
H 	-1.297021	0.257724	1.625922
H 	-2.882535	-1.436423	0.469074
H 	-2.240220	-1.383769	-1.302800
H 	3.116405	-1.803715	0.002471
