12
02/11/2019 18:37, XYZ structure generated by mol3D Class, molSimplify
C 	1.508732	-0.200834	-0.527190
C 	0.593720	0.505896	0.538622
C 	-0.751601	-0.218441	0.678844
C 	-1.634859	-0.125644	-0.573512
H 	0.916728	0.106925	-1.708865
H 	1.541361	-1.447376	-0.448044
H 	2.616965	0.161805	-0.296292
H 	1.045069	0.750794	1.521669
H 	0.308991	1.498872	0.157777
H 	-0.972318	-0.692183	2.026762
H 	-1.182337	0.407225	-1.882921
H 	-2.738746	-0.339082	-0.315041
