11
02/13/2019 22:15, XYZ structure generated by mol3D Class, molSimplify
C 	2.064077	-0.418943	-0.393570
C 	1.065901	-0.098632	0.488935
C 	-0.028194	0.891229	0.217301
C 	-1.258973	0.043209	-0.127602
C 	-2.338385	-0.476865	-0.178698
H 	2.915789	-1.086844	-0.076327
H 	2.119355	-0.097475	-1.505366
H 	1.146256	-0.562666	1.465918
H 	0.340975	1.557363	-0.656505
H 	-0.321962	1.475313	1.199073
H 	-3.269413	-0.928434	-0.413171
