15
02/13/2019 22:15, XYZ structure generated by mol3D Class, molSimplify
C 	-1.944273	-0.526389	-0.060361
C 	-0.586224	-0.056462	0.429939
C 	-0.002772	1.252561	-0.005037
C 	0.610762	-0.019949	-0.451433
C 	1.931414	-0.531443	0.084084
H 	-2.092186	-0.242335	-1.091727
H 	-2.726429	-0.063107	0.522647
H 	-2.086709	-1.611878	-0.032847
H 	-0.377069	-0.357292	1.463457
H 	-0.566701	1.826642	-0.734569
H 	0.483633	1.870033	0.773954
H 	0.438319	-0.209395	-1.500399
H 	1.954263	-1.629335	0.107092
H 	2.107502	-0.152793	1.088575
H 	2.759314	-0.182177	-0.562755
