8
02/13/2019 22:15, XYZ structure generated by mol3D Class, molSimplify
C 	-2.154750	-0.540749	0.008962
C 	-1.159051	0.114911	-0.031604
C 	0.047057	0.900039	-0.012398
C 	1.244751	0.019799	0.061087
N 	2.137495	-0.696748	-0.031249
H 	-3.010703	-1.171200	0.096071
H 	0.050191	1.524222	0.912178
H 	0.208247	1.515363	-0.884233
