11
02/13/2019 22:15, XYZ structure generated by mol3D Class, molSimplify
O 	1.873527	0.020922	-0.168602
C 	0.686735	0.008150	0.014712
C 	-0.415098	-1.116625	0.180204
C 	-1.478743	-0.010137	-0.215287
C 	-0.360755	1.093560	0.191127
H 	-0.282997	-2.129018	-0.416909
H 	-0.446834	-1.453587	1.314497
H 	-1.661434	-0.002251	-1.444708
H 	-2.516690	0.070358	0.332120
H 	-0.221264	2.072542	-0.453003
H 	-0.424737	1.408206	1.310674
