13
03/25/2019 10:01, XYZ structure generated by mol3D Class, molSimplify
C 	0.847645	1.407091	0.147202
C 	0.762715	-0.045499	-0.362402
O 	1.996124	-0.645088	-0.174102
C 	-0.330727	-0.845136	0.350552
C 	-1.676405	-0.294658	0.069664
N 	-2.646500	0.279619	-0.194391
H 	-0.105346	1.947426	-0.099171
H 	0.888962	1.387407	1.229574
H 	1.708037	1.908952	-0.308822
H 	0.598785	-0.010267	-1.450629
H 	2.144290	-0.751030	0.834977
H 	-0.153210	-0.946063	1.442164
H 	-0.257575	-1.862804	-0.129696
