11
02/13/2019 22:15, XYZ structure generated by mol3D Class, molSimplify
O 	1.221329	-0.856349	-0.113049
C 	0.684574	0.324141	0.473833
C 	0.037029	1.279878	-0.500313
C 	-0.818987	0.284367	0.400723
O 	-1.277780	-0.879784	-0.135714
H 	1.936594	-0.603712	-0.662764
H 	1.099539	0.741411	1.368704
H 	-0.033058	2.369885	-0.323350
H 	0.000412	0.847707	-1.506254
H 	-1.503857	0.620860	1.147699
H 	-0.560557	-1.493867	-0.210510
