15
02/13/2019 22:15, XYZ structure generated by mol3D Class, molSimplify
C 	-1.998319	-0.633485	0.004693
C 	-1.287647	0.686094	0.235621
C 	0.073962	0.667894	-0.415526
C 	0.907038	-0.503374	0.081560
O 	2.343624	-0.158807	-0.023470
H 	-1.984165	-1.043711	-1.116603
H 	-3.007933	-0.773811	0.350669
H 	-1.498551	-1.516737	0.441895
H 	-1.138475	0.855539	1.367341
H 	-1.824254	1.497952	-0.218899
H 	0.029856	0.878183	-1.503349
H 	0.559132	1.617744	0.060408
H 	0.599520	-1.064905	1.184618
H 	0.679022	-1.408507	-0.581398
H 	2.785056	0.487204	0.952788
