10
02/11/2019 18:37, XYZ structure generated by mol3D Class, molSimplify
O 	-1.252471	-0.645180	0.043287
C 	-0.691217	0.680942	-0.271332
C 	0.739148	0.604371	0.239984
O 	1.318413	-0.611465	-0.137158
H 	-1.579354	-0.637575	0.946166
H 	-0.730307	0.793379	-1.386283
H 	-1.331075	1.504242	0.130314
H 	0.678241	0.611739	1.338616
H 	1.447344	1.354148	-0.072912
H 	0.580691	-1.279266	0.022279
