13
03/25/2019 10:01, XYZ structure generated by mol3D Class, molSimplify
C 	1.837811	-0.649453	0.010170
O 	1.064955	0.561970	-0.287006
C 	-0.222314	0.494163	0.330041
C 	-1.019197	1.715900	-0.083308
C 	-0.835169	-0.825802	0.054783
N 	-1.406386	-1.833068	-0.105484
H 	1.281445	-1.605913	-0.066189
H 	2.095190	-0.572693	1.040409
H 	2.695895	-0.569130	-0.700621
H 	-0.008690	0.374244	1.456430
H 	-2.008596	1.790028	0.337967
H 	-0.420107	2.680649	0.088969
H 	-1.179183	1.711948	-1.205035
