14
03/25/2019 10:01, XYZ structure generated by mol3D Class, molSimplify
C 	2.995189	0.058658	-0.119262
C 	1.543366	0.019675	0.062627
C 	0.346237	0.000089	0.207368
C 	-1.117579	-0.064938	0.389113
C 	-1.816050	1.162128	-0.179649
O 	-1.675371	-1.194107	-0.268180
H 	3.513329	-0.362641	0.748185
H 	3.341865	1.088251	-0.253762
H 	3.291988	-0.514403	-1.003477
H 	-1.323726	-0.121786	1.470268
H 	-2.895881	1.065457	-0.034287
H 	-1.610034	1.239332	-1.250749
H 	-1.465470	2.070870	0.317742
H 	-1.155981	-1.965909	-0.009766
