9
02/11/2019 18:37, XYZ structure generated by mol3D Class, molSimplify
C 	-1.408722	-0.489867	0.002572
C 	-0.519362	0.702161	0.016757
N 	0.744215	0.677494	0.015941
O 	1.243517	-0.609529	-0.024951
H 	-1.077766	-1.186307	-0.743336
H 	-1.315207	-0.969448	1.000568
H 	-2.460798	-0.124548	-0.227776
H 	-0.898848	1.718258	-0.061659
H 	2.194796	-0.509325	-0.023449
