10
02/13/2019 22:15, XYZ structure generated by mol3D Class, molSimplify
N 	1.676657	-0.534389	-0.062518
C 	0.466503	0.114551	-0.010622
N 	0.233473	1.368555	0.026261
N 	-0.622364	-0.769711	-0.066909
O 	-1.855656	-0.106482	-0.031944
H 	2.479039	-0.092705	0.353924
H 	1.685914	-1.541073	-0.120050
H 	1.072338	1.933168	-0.059006
H 	-0.609660	-1.411161	0.722367
H 	-1.598590	0.825591	0.138248
