10
02/11/2019 18:17, XYZ structure generated by mol3D Class, molSimplify
C 	-1.338872	-0.206388	-0.024519
C 	0.056089	0.510908	0.008695
N 	1.278653	-0.311949	-0.115604
H 	-2.106492	0.444197	0.375165
H 	-1.566302	-0.658533	-1.041591
H 	-1.075137	-1.094870	0.685831
H 	0.172166	1.153773	-0.848768
H 	0.060566	1.092590	0.990636
H 	1.236888	-0.960696	0.744242
H 	2.028995	0.408734	0.222594
