11
02/11/2019 18:37, XYZ structure generated by mol3D Class, molSimplify
C 	-1.509809	-0.063535	-0.154791
C 	-0.155568	-0.025802	0.509298
C 	1.014779	-0.647326	-0.145563
N 	0.912114	0.809615	-0.037441
H 	-1.407011	-0.109545	-1.245241
H 	-2.080693	-0.941650	0.165288
H 	-2.096785	0.828875	0.092145
H 	-0.180928	-0.018353	1.599030
H 	0.856084	-1.111000	-1.118421
H 	1.808356	-1.100041	0.444787
H 	0.618809	1.204240	-0.929660
