18
03/25/2019 10:02, XYZ structure generated by mol3D Class, molSimplify
C 	-2.467646	0.383812	-0.606694
N 	-1.844496	-0.391528	0.545023
C 	-0.411145	-0.130425	0.685086
C 	0.380291	-0.314095	-0.628677
C 	1.880569	-0.470220	-0.313054
N 	2.380281	0.743879	0.239816
H 	-3.619798	0.616041	-0.137392
H 	-1.706609	1.498127	-0.763992
H 	-2.370545	-0.328279	-1.693843
H 	-2.246063	-0.023140	1.491791
H 	-0.074327	-0.922386	1.306806
H 	-0.242975	0.881157	1.120935
H 	0.024741	-1.164723	-1.213230
H 	0.335226	0.618391	-1.295649
H 	2.360420	-0.671065	-1.267795
H 	2.125234	-1.398760	0.321717
H 	3.391681	0.783486	0.236773
H 	2.157637	0.830828	1.286227
