11
02/13/2019 22:15, XYZ structure generated by mol3D Class, molSimplify
C 	-1.893124	-0.550567	-0.047205
N 	-1.253815	0.746764	-0.038051
C 	0.024222	0.752426	0.081537
N 	0.820877	-0.418226	0.256254
O 	2.098355	-0.119172	-0.237940
H 	-1.408734	-1.343192	-0.763145
H 	-2.990345	-0.463720	-0.369455
H 	-1.908908	-1.013240	1.067831
H 	0.634618	1.655765	0.032066
H 	0.463564	-1.174714	-0.367691
H 	2.746654	-0.258390	0.442941
