11
02/13/2019 22:15, XYZ structure generated by mol3D Class, molSimplify
C 	-1.840561	-0.512987	-0.174140
C 	-0.380346	0.099435	0.087679
O 	-0.439228	1.299641	0.094255
C 	0.853318	-0.714034	0.210299
C 	2.049462	-0.058345	-0.180824
H 	-2.212785	-0.228858	-1.142467
H 	-2.416354	0.056395	0.636366
H 	-1.861983	-1.602302	-0.009451
H 	0.716727	-1.722690	0.667159
H 	2.075391	1.049672	-0.759752
H 	3.159117	-0.474953	-0.209232
