15
03/25/2019 10:02, XYZ structure generated by mol3D Class, molSimplify
O 	1.585995	0.146461	-0.722964
C 	0.871491	0.156861	0.520032
C 	-0.218758	1.241497	0.355029
C 	-1.411226	0.478449	-0.318651
N 	-1.036310	-0.934521	-0.400152
C 	0.009946	-1.101923	0.621826
H 	2.349235	-0.444360	-0.577678
H 	1.544470	0.340166	1.394852
H 	-0.509500	1.577074	1.337608
H 	0.160795	2.046516	-0.287834
H 	-1.541318	0.900309	-1.346817
H 	-2.385606	0.597184	0.235382
H 	-0.567068	-1.089780	-1.297140
H 	0.568924	-2.000417	0.382480
H 	-0.431024	-1.176734	1.622300
