11
02/13/2019 22:15, XYZ structure generated by mol3D Class, molSimplify
N 	-1.888032	-0.557746	-0.162321
N 	-1.320320	0.695052	-0.012176
C 	-0.052261	0.729873	0.112526
C 	0.874555	-0.459967	0.109802
O 	2.227086	-0.085999	-0.032720
H 	-2.885204	-0.471619	-0.010418
H 	-1.508999	-1.260407	0.469027
H 	0.405857	1.715389	0.213806
H 	0.815368	-1.003085	1.064430
H 	0.553604	-1.165641	-0.675986
H 	2.331975	0.289685	-0.916376
