11
02/13/2019 22:15, XYZ structure generated by mol3D Class, molSimplify
C 	1.579439	0.640300	-0.306514
C 	0.861088	-0.409299	0.476032
O 	-0.260172	-1.034003	-0.193327
C 	-1.324515	-0.212888	-0.205445
O 	-1.272125	0.941745	0.208970
H 	2.287764	1.066483	0.469005
H 	2.334675	0.158809	-1.043918
H 	0.980855	1.540880	-0.668465
H 	1.600953	-1.145454	0.785079
H 	0.546968	-0.098236	1.453316
H 	-2.219900	-0.800602	-0.619127
