9
02/13/2019 22:15, XYZ structure generated by mol3D Class, molSimplify
C 	1.907379	-0.550048	0.081639
N 	1.310217	0.583845	-0.125130
N 	-0.034208	0.625027	0.098800
C 	-1.028733	-0.311655	-0.129069
O 	-2.204819	-0.190772	0.049716
H 	2.961703	-0.678759	-0.167248
H 	1.378998	-1.413980	0.440254
H 	-0.426142	1.570584	0.072271
H 	-0.449071	-1.291738	-0.300091
