11
02/13/2019 22:15, XYZ structure generated by mol3D Class, molSimplify
C 	2.386349	-0.002615	-0.057385
C 	0.920115	-0.398419	0.050934
C 	-0.096147	0.465108	0.066660
C 	-1.471091	0.093640	-0.004242
C 	-2.638651	-0.150509	-0.028879
H 	2.490957	1.126901	-0.112946
H 	2.859424	-0.398050	0.837104
H 	2.896255	-0.473664	-0.927818
H 	0.769553	-1.471080	0.073689
H 	0.066669	1.523315	-0.025907
H 	-3.689819	-0.256977	-0.166652
