13
02/13/2019 22:15, XYZ structure generated by mol3D Class, molSimplify
C 	-1.056757	1.267178	0.154546
C 	-0.396930	0.000667	-0.405329
C 	-1.055054	-1.266748	0.154510
C 	1.047723	0.000241	-0.127017
C 	2.226668	-0.001352	0.118738
H 	-0.952761	1.302994	1.243885
H 	-2.125180	1.276168	-0.089310
H 	-0.598299	2.168612	-0.261560
H 	-0.522502	0.001936	-1.496454
H 	-0.592617	-2.168651	-0.257976
H 	-0.952609	-1.301032	1.244576
H 	-2.122386	-1.278957	-0.091642
H 	3.272818	-0.000883	0.335542
