13
02/13/2019 22:15, XYZ structure generated by mol3D Class, molSimplify
O 	-1.719889	-0.795324	-0.162327
C 	-1.238567	0.573151	-0.323291
C 	0.054278	0.799810	0.395698
C 	1.075490	-0.381535	0.445540
C 	2.201441	-0.244561	-0.355520
H 	-2.414372	-0.955168	0.602426
H 	-1.179716	0.626248	-1.475220
H 	-2.092526	1.298535	-0.083965
H 	0.508593	1.832544	0.160888
H 	-0.179936	0.926847	1.458346
H 	0.746429	-1.366128	1.133885
H 	2.581807	0.665121	-1.122174
H 	2.786373	-1.239092	-0.385261
