11
03/25/2019 10:02, XYZ structure generated by mol3D Class, molSimplify
N 	-2.030632	-0.202193	0.185567
C 	-0.787707	0.028069	-0.117518
N 	0.045802	-1.061640	-0.171822
C 	1.371272	-0.642922	0.086392
C 	1.424208	0.665469	0.139016
N 	0.088952	1.104996	-0.209227
H 	-2.501894	0.738696	0.238938
H 	-0.411618	-1.995655	0.064809
H 	2.172965	-1.392015	0.539746
H 	2.105228	1.457718	0.161900
H 	-0.318233	1.975087	0.426075
