8
02/13/2019 22:15, XYZ structure generated by mol3D Class, molSimplify
O 	1.421298	-0.988426	0.000386
C 	1.331237	0.208917	-0.000288
C 	0.016153	0.974262	0.000350
C 	-1.159868	0.105311	-0.000515
N 	-2.100910	-0.564668	0.000032
H 	2.225665	0.863502	-0.004140
H 	-0.007356	1.631428	0.878958
H 	-0.008657	1.634084	-0.875984
