8
02/13/2019 22:15, XYZ structure generated by mol3D Class, molSimplify
C 	-2.096122	-0.095711	-0.175282
N 	-0.888753	-0.467816	0.252721
O 	-0.015230	0.657534	0.013522
C 	1.324381	0.411098	0.056852
O 	1.798031	-0.659273	-0.129737
H 	-2.789223	-0.949901	0.145024
H 	-2.539595	0.939893	-0.631232
H 	1.884812	1.404800	0.229363
