11
02/13/2019 22:15, XYZ structure generated by mol3D Class, molSimplify
C 	-1.579112	-0.632361	0.261201
O 	-0.985301	0.376498	-0.531512
C 	0.084337	1.010746	0.090014
C 	1.351473	0.182647	0.176941
O 	1.452992	-0.960346	-0.192023
H 	-2.444582	-0.998350	-0.293528
H 	-1.921820	-0.223698	1.225226
H 	-0.887869	-1.462404	0.441576
H 	0.319630	1.914331	-0.487647
H 	-0.164400	1.349631	1.114687
H 	2.215984	0.726670	0.621814
