11
02/13/2019 22:15, XYZ structure generated by mol3D Class, molSimplify
C 	-1.164205	0.353756	0.089735
C 	0.106535	1.306861	-0.069625
C 	1.158653	0.209372	0.124822
N 	0.807795	-1.052672	-0.010952
N 	-0.583380	-1.016150	-0.075128
H 	-1.888208	0.575630	-0.699440
H 	-1.655026	0.434387	1.104930
H 	0.201831	2.135269	0.586216
H 	0.014302	1.611377	-1.222588
H 	2.192417	0.329580	-0.021865
H 	-1.117646	-1.887672	-0.276932
