11
02/13/2019 22:15, XYZ structure generated by mol3D Class, molSimplify
C 	1.269032	1.243312	-0.117009
C 	0.404387	-0.001976	0.335984
O 	0.849944	-1.240485	-0.289883
C 	-1.061503	0.026517	0.020287
C 	-2.257804	-0.075056	-0.024576
H 	2.246284	1.171996	0.376939
H 	1.436279	1.312603	-1.276010
H 	0.782092	2.228241	0.086146
H 	0.439346	-0.219972	1.408821
H 	1.573806	-1.897420	1.058512
H 	-3.337785	-0.212529	0.064396
