14
02/13/2019 22:15, XYZ structure generated by mol3D Class, molSimplify
C 	-0.773908	1.442785	0.210627
C 	-0.448844	-0.019096	-0.280334
N 	-1.637412	-0.765505	-0.147120
C 	0.770465	-0.533864	0.502844
O 	2.061340	-0.044563	-0.248385
H 	-1.780735	1.274401	1.093325
H 	-1.137907	2.101055	-0.955145
H 	0.384137	1.842315	0.795859
H 	-0.050524	0.077358	-1.370000
H 	-1.779717	-0.915478	0.806078
H 	-1.717141	-1.614834	-0.894334
H 	0.788079	-1.722203	0.633299
H 	0.796803	0.002792	1.612814
H 	2.016480	-0.765168	-1.155303
