14
02/13/2019 22:15, XYZ structure generated by mol3D Class, molSimplify
C 	2.008078	0.180296	0.106404
N 	0.857605	-0.628593	-0.142559
C 	-0.309771	-0.042290	0.491884
C 	-1.616184	-0.535490	-0.020036
C 	-1.186774	0.890998	-0.300930
H 	2.885280	-0.504623	1.190014
H 	2.638804	0.092713	-1.223896
H 	1.445801	1.471392	0.391211
H 	0.568810	-0.454011	-1.241863
H 	-0.141913	-0.047064	1.593921
H 	-2.397902	-0.863447	0.682612
H 	-1.593221	-1.134886	-0.919600
H 	-1.075001	1.030668	-1.376063
H 	-1.797077	1.689241	0.177379
