14
02/13/2019 22:15, XYZ structure generated by mol3D Class, molSimplify
C 	-1.091420	-1.066129	0.040210
C 	-0.061370	0.085319	-0.021977
C 	-0.894526	1.335644	-0.158315
C 	1.247859	-0.173689	-0.633673
N 	1.040213	-0.300548	0.853224
H 	-0.431528	-2.099229	-0.966284
H 	-0.953455	-1.550947	1.559883
H 	-2.443580	-0.494257	-0.387099
H 	-1.690124	1.460771	0.537830
H 	-0.308343	2.332202	-0.254043
H 	-1.420978	1.132168	-1.148416
H 	1.457083	-1.103520	-1.169803
H 	1.803743	0.704371	-0.863060
H 	1.444691	0.587750	1.250799
