9
02/13/2019 22:15, XYZ structure generated by mol3D Class, molSimplify
N 	2.221352	0.000771	0.072352
N 	0.928779	-0.485798	-0.145195
C 	-0.009371	0.378668	-0.078604
C 	-1.378660	0.011405	-0.129607
C 	-2.571032	-0.098395	0.141081
H 	2.905388	-0.656445	0.394450
H 	2.315765	1.076742	0.282762
H 	0.024831	1.535330	0.138705
H 	-3.688802	0.060949	0.414024
