13
02/13/2019 22:15, XYZ structure generated by mol3D Class, molSimplify
C 	2.007265	-0.640223	0.001173
C 	1.236399	0.657711	-0.000527
C 	-0.096360	0.769693	-0.001186
C 	-1.032428	-0.356623	-0.000899
C 	-2.358950	-0.217321	0.001674
H 	1.781623	-1.243804	-0.885784
H 	3.085354	-0.456124	0.008745
H 	1.774001	-1.248386	0.881504
H 	1.826126	1.571437	0.000558
H 	-0.544004	1.762879	-0.004824
H 	-0.604812	-1.359691	-0.011033
H 	-2.825966	0.766381	0.010965
H 	-3.026037	-1.075535	-0.002928
