14
02/13/2019 22:15, XYZ structure generated by mol3D Class, molSimplify
C 	1.709287	0.000032	0.358071
C 	0.494856	0.059530	-0.558241
C 	-0.583052	1.074662	-0.116668
C 	-1.343997	-0.137361	0.451999
N 	-0.490963	-1.025489	-0.359308
H 	1.406049	-0.049532	1.410868
H 	2.339014	0.888328	0.230926
H 	2.323206	-0.881044	0.137040
H 	0.822964	0.142798	-1.602346
H 	-0.265220	1.844764	0.593258
H 	-1.097996	1.544356	-0.957864
H 	-2.413655	-0.208434	0.224274
H 	-1.211790	-0.245879	1.538558
H 	-0.127623	-1.838797	0.130737
