9
02/13/2019 22:15, XYZ structure generated by mol3D Class, molSimplify
C 	-2.198948	-0.080490	-0.237737
C 	-0.923587	-0.382834	0.367180
O 	0.013472	0.659572	0.110877
C 	1.369355	0.453493	-0.003243
O 	1.821581	-0.671270	-0.189413
H 	-3.094134	-0.763918	-0.298736
H 	-2.520975	1.017117	-1.047314
H 	-0.535951	-1.366583	1.074003
H 	1.822255	1.403910	0.015830
