12
02/13/2019 22:15, XYZ structure generated by mol3D Class, molSimplify
C 	1.655684	0.641917	-0.327547
C 	0.916330	-0.379172	0.523156
O 	-0.159915	-1.006322	-0.176350
N 	-1.347450	-0.349578	-0.328403
C 	-1.519459	0.800210	0.189847
H 	2.029797	0.166096	-1.237952
H 	1.012002	1.474364	-0.625435
H 	2.506764	1.049833	0.226719
H 	0.560963	0.042656	1.473834
H 	1.572593	-1.218197	0.765238
H 	-2.501835	1.233102	0.034073
H 	-0.787733	1.370663	0.760704
