10
02/13/2019 22:15, XYZ structure generated by mol3D Class, molSimplify
C 	-1.698491	-0.514813	0.280961
O 	-0.909862	0.327182	-0.559364
N 	0.134377	0.882216	0.173736
C 	1.329105	0.215500	0.156185
O 	1.488898	-0.941792	-0.171328
H 	-2.532284	-0.803973	-0.364282
H 	-2.049232	0.034109	1.158242
H 	-1.140477	-1.391291	0.592633
H 	0.127191	1.899124	0.126726
H 	2.135029	0.884734	0.534261
