11
02/13/2019 22:15, XYZ structure generated by mol3D Class, molSimplify
O 	1.887988	-0.003079	-0.189527
C 	0.684857	0.005168	0.083270
C 	-0.385247	-1.110767	0.173109
C 	-1.499666	-0.000687	-0.220125
C 	-0.382888	1.093001	0.184991
H 	-0.111696	-1.995124	-0.539537
H 	-0.442386	-1.453445	1.282783
H 	-1.775282	0.113759	-1.400789
H 	-2.549114	0.022026	0.350816
H 	-0.335451	1.958613	-0.551432
H 	-0.389939	1.561201	1.231760
