15
03/25/2019 10:01, XYZ structure generated by mol3D Class, molSimplify
C 	1.936680	-0.180551	-0.628701
O 	1.373207	0.131832	0.654226
C 	-0.019822	-0.008061	0.714363
C 	-0.900138	1.070330	0.074981
N 	-1.848017	-0.004570	-0.298482
C 	-0.813437	-0.999332	-0.148050
H 	1.172019	0.327199	-1.588981
H 	2.142414	-1.483502	-0.754800
H 	3.039777	0.539780	-0.541698
H 	-0.236077	-0.197596	1.792392
H 	-1.248615	1.912363	0.693624
H 	-0.424777	1.515431	-0.831235
H 	-2.310184	0.030652	-1.222127
H 	-0.268236	-1.291771	-1.067453
H 	-1.144903	-1.981106	0.313941
