14
02/13/2019 22:15, XYZ structure generated by mol3D Class, molSimplify
C 	2.146355	-0.454240	0.232818
O 	0.970791	-0.013637	-0.589375
C 	0.087151	0.716865	0.222242
C 	-1.357541	0.504406	-0.281432
N 	-1.883563	-0.813557	0.218442
H 	2.773786	-1.111209	-0.444909
H 	1.870408	-1.006677	1.235268
H 	2.923834	0.472854	0.542393
H 	0.500337	1.749484	0.097780
H 	0.102927	0.361884	1.243435
H 	-1.992065	1.398910	-0.090143
H 	-1.311864	0.492607	-1.364471
H 	-1.718324	-1.078513	1.238442
H 	-3.044453	-0.595272	0.131180
