9
03/25/2019 10:02, XYZ structure generated by mol3D Class, molSimplify
C 	-2.198536	-0.558514	-0.297073
C 	-0.848586	-0.660110	0.281086
C 	0.110003	0.462892	0.217711
O 	-0.237620	1.608573	0.023760
C 	1.433811	-0.083787	0.098335
N 	2.440462	-0.762567	-0.259296
H 	-2.905733	-1.393549	-0.120562
H 	-2.674325	0.378874	-1.112594
H 	-0.507847	-1.659414	0.886051
