15
02/13/2019 22:15, XYZ structure generated by mol3D Class, molSimplify
C 	1.865173	-0.395227	-0.680246
C 	0.852618	-0.104929	0.812418
C 	-0.584891	-0.013988	0.210099
C 	-1.185702	1.393521	0.382346
C 	-1.199578	-1.049365	-0.628824
H 	2.923824	-0.099909	0.063028
H 	1.694384	0.681838	-1.999113
H 	1.763683	-2.023384	-1.227852
H 	0.874194	-1.178756	1.534183
H 	1.167460	0.984030	1.569844
H 	-2.106498	1.359949	-0.577252
H 	-1.768131	1.728471	1.588160
H 	-0.248646	2.251854	0.059567
H 	-0.818644	-2.122305	-0.644010
H 	-2.125906	-0.841057	-1.150403
