13
03/25/2019 10:01, XYZ structure generated by mol3D Class, molSimplify
O 	2.312214	-0.364073	0.004675
C 	1.438294	0.483280	0.000916
N 	0.119439	0.210330	-0.008010
C 	-1.092265	1.022208	-0.000356
C 	-1.908943	-0.296058	0.005647
C 	-0.567710	-1.072765	-0.004499
H 	1.646597	1.572302	0.004538
H 	-1.208040	1.647097	0.892909
H 	-1.219029	1.645140	-0.893025
H 	-2.530768	-0.446156	-0.878191
H 	-2.514727	-0.446672	0.901063
H 	-0.370350	-1.675771	-0.896902
H 	-0.357346	-1.675363	0.886333
