14
03/25/2019 10:01, XYZ structure generated by mol3D Class, molSimplify
N 	2.546628	-0.274095	0.221995
N 	1.309825	-0.415840	-0.624766
C 	0.491343	0.714225	0.241691
C 	-0.931928	0.549063	-0.356400
C 	-2.170594	0.277669	0.754865
C 	-1.522820	-0.919005	-0.251293
H 	2.946268	1.115057	0.837752
H 	3.354787	-0.616790	-0.829951
H 	0.776673	1.844704	1.321478
H 	-1.201517	1.236778	-1.250952
H 	-1.872267	0.194327	1.894485
H 	-3.283570	0.831383	0.466050
H 	-0.870577	-1.804680	0.101677
H 	-2.132020	-1.115664	-1.262748
