12
03/25/2019 10:01, XYZ structure generated by mol3D Class, molSimplify
C 	1.417769	1.144846	0.191514
N 	0.619269	-0.003229	-0.431075
O 	1.266192	-1.164337	0.032673
C 	-0.760087	-0.095948	-0.067085
N 	-1.444599	1.021124	0.024458
O 	-1.291019	-1.221788	0.149634
H 	2.564515	0.997608	0.085300
H 	1.266322	2.131542	-0.312623
H 	1.102876	1.298556	1.242002
H 	0.497928	-1.796959	-0.065413
H 	-0.827549	2.185505	-0.885433
H 	-2.516077	1.172818	0.174479
