13
03/25/2019 10:02, XYZ structure generated by mol3D Class, molSimplify
C 	1.956481	0.025313	-0.395695
C 	0.715390	0.000391	0.517072
C 	-0.234551	-1.214966	0.218418
O 	-1.424716	-0.561971	-0.320457
N 	-1.352921	0.820879	-0.227291
C 	-0.212726	1.186049	0.246183
H 	1.735213	0.120296	-1.549617
H 	2.770233	0.769055	-0.215059
H 	2.510390	-0.945626	-0.214302
H 	1.059611	0.098487	1.616472
H 	-0.468649	-1.649542	1.147385
H 	0.195472	-1.868192	-0.584252
H 	0.029561	2.271928	0.227383
