8
02/13/2019 22:15, XYZ structure generated by mol3D Class, molSimplify
O 	1.396697	-0.995147	0.029992
C 	1.350607	0.196329	-0.054428
C 	0.045524	1.004544	-0.008205
C 	-1.197486	0.142947	0.105753
N 	-2.086774	-0.617659	-0.066319
H 	2.295791	0.856268	-0.085754
H 	0.041784	1.676409	0.852871
H 	-0.066329	1.780493	-0.835071
