13
02/13/2019 22:15, XYZ structure generated by mol3D Class, molSimplify
C 	-1.808905	-0.069630	0.038042
O 	-0.606582	-0.815311	-0.028076
C 	0.569520	-0.094338	-0.005805
C 	0.474707	1.414070	-0.019617
C 	1.689261	-0.764508	0.021868
H 	-1.810667	0.745969	-0.770858
H 	-2.654966	-0.757381	-0.089367
H 	-1.913442	0.422137	1.034983
H 	-0.181860	1.813500	0.764263
H 	0.100046	1.720522	-0.987900
H 	1.433375	1.936611	0.059011
H 	2.681206	-0.313731	0.084798
H 	1.652472	-1.866582	-0.059954
