9
02/13/2019 22:15, XYZ structure generated by mol3D Class, molSimplify
C 	-0.007838	1.184584	-0.024485
C 	-1.110203	0.208319	0.024314
N 	-0.731062	-1.024784	-0.005542
N 	0.714014	-1.000391	-0.025068
C 	1.137126	0.209449	0.039744
H 	0.048721	1.773025	-0.944568
H 	-0.042007	1.853433	0.839716
H 	-2.172105	0.481777	0.050510
H 	2.175047	0.458658	0.008446
