12
03/25/2019 10:01, XYZ structure generated by mol3D Class, molSimplify
C 	-0.046967	1.773475	-0.232287
C 	0.004735	0.341234	0.380284
C 	1.252390	-0.401752	0.084381
C 	2.280438	-0.994469	-0.121341
C 	-1.215939	-0.384379	0.103317
C 	-2.259124	-0.954965	-0.127078
H 	-0.066484	1.745188	-1.324292
H 	-0.963867	2.259244	0.081651
H 	0.829006	2.313635	0.138545
H 	0.006977	0.474470	1.455214
H 	3.143515	-1.630569	-0.370800
H 	-3.134092	-1.452383	-0.477083
