14
02/13/2019 22:15, XYZ structure generated by mol3D Class, molSimplify
C 	-1.647382	-0.704692	0.132493
C 	-0.664699	0.295707	-0.382789
C 	0.095429	1.326702	0.446330
N 	0.787563	0.307666	-0.469211
C 	1.490042	-0.897224	0.065860
H 	-2.626405	-0.210479	0.273184
H 	-1.462377	-1.120435	1.154274
H 	-1.723263	-1.611642	-0.531964
H 	-1.048549	0.786140	-1.348585
H 	0.289552	2.356923	-0.022583
H 	0.338471	1.222132	1.544413
H 	2.624853	-0.617760	-0.060571
H 	1.348306	-1.332906	1.074281
H 	1.128292	-1.691200	-0.632147
