8
02/11/2019 18:37, XYZ structure generated by mol3D Class, molSimplify
C 	-1.407022	-0.132823	0.007232
C 	0.091334	0.149939	0.003811
O 	0.760472	-1.038687	0.034227
O 	0.674612	1.200521	-0.046235
H 	-1.639066	-1.153436	0.616347
H 	-1.703280	-0.272641	-1.155301
H 	-1.973547	0.774624	0.470238
H 	1.696110	-0.820893	0.127803
