10
02/11/2019 18:37, XYZ structure generated by mol3D Class, molSimplify
C 	1.393334	-0.517872	-0.001044
C 	0.545414	0.761075	0.040354
N 	-0.729428	0.694121	0.004762
N 	-1.301687	-0.517546	-0.049467
H 	0.777667	-1.244385	-0.641366
H 	1.244805	-0.897145	1.050826
H 	2.505398	-0.289195	-0.420965
H 	0.950638	1.698995	0.034347
H 	-2.337961	-0.650802	0.067516
H 	-0.747112	-1.395470	0.062754
