12
02/13/2019 22:15, XYZ structure generated by mol3D Class, molSimplify
C 	-2.304073	-0.420199	0.126570
C 	-1.072499	0.585384	-0.087654
N 	0.176223	-0.127164	-0.203955
C 	1.433470	0.324932	0.132976
O 	2.365854	-0.383767	0.036611
H 	-2.064875	-0.894847	1.128827
H 	-3.291145	0.092056	0.020465
H 	-2.376307	-0.989186	-0.762986
H 	-1.033322	1.225243	0.814450
H 	-1.197095	1.358668	-0.944527
H 	0.086681	-1.163703	-0.288913
H 	1.423740	1.502157	0.238601
