12
02/13/2019 22:15, XYZ structure generated by mol3D Class, molSimplify
C 	2.631346	0.209682	0.000879
C 	1.197161	-0.085487	-0.000055
C 	0.017989	-0.340667	-0.001726
C 	-1.436292	-0.600187	-0.001475
N 	-2.286053	0.589951	0.001971
H 	2.914345	0.792635	-0.881648
H 	2.915985	0.782235	0.889350
H 	3.217217	-0.715052	-0.005559
H 	-1.695484	-1.206841	0.874193
H 	-1.698544	-1.202934	-0.878733
H 	-2.052990	1.159088	0.811850
H 	-2.057843	1.159822	-0.808295
