15
02/13/2019 22:15, XYZ structure generated by mol3D Class, molSimplify
C 	-1.777830	-0.789541	-0.048298
C 	-0.436595	-0.021338	-0.249512
C 	-0.603925	1.427265	0.212238
C 	0.848566	-0.617542	0.339206
O 	1.970757	-0.066432	-0.375283
H 	-1.822168	-1.750093	-0.625125
H 	-2.053012	-0.993873	1.022618
H 	-2.461169	-0.080400	-0.532303
H 	-0.226725	0.072106	-1.306096
H 	-1.385937	1.630989	1.170478
H 	-1.051180	2.157981	-0.861979
H 	0.559705	1.822855	0.385183
H 	0.870918	-1.651678	0.194846
H 	0.871843	-0.354693	1.445896
H 	2.737408	0.476159	0.906916
