13
02/13/2019 22:15, XYZ structure generated by mol3D Class, molSimplify
C 	2.089693	-0.630316	-0.088499
C 	1.221505	0.673640	0.041818
C 	-0.103885	0.723642	-0.025825
C 	-1.071735	-0.387471	0.147527
C 	-2.382834	-0.185585	-0.103298
H 	1.726217	-1.253699	-0.879514
H 	3.138049	-0.437797	-0.100878
H 	1.878078	-1.200905	0.844687
H 	1.745924	1.592435	0.140957
H 	-0.458173	1.739058	0.215521
H 	-0.678836	-1.376279	0.489914
H 	-2.728663	0.870615	-0.424145
H 	-3.118437	-0.986152	0.050147
