10
02/11/2019 18:37, XYZ structure generated by mol3D Class, molSimplify
O 	1.215657	-0.709209	-0.056426
C 	0.726374	0.633003	0.004630
C 	-0.824107	0.651350	-0.000063
C 	-1.438564	-0.534766	-0.003778
H 	2.150046	-0.742098	0.628571
H 	1.066387	1.174478	0.884475
H 	0.897962	1.182233	-0.896522
H 	-1.191654	1.671746	0.058513
H 	-2.587770	-0.847044	-0.047696
H 	-0.797729	-1.414311	0.258839
