14
03/25/2019 10:01, XYZ structure generated by mol3D Class, molSimplify
C 	2.673949	0.849898	0.093892
C 	2.032545	-0.593211	-0.237757
C 	0.561751	-0.561533	-0.067589
C 	-0.615306	-0.505118	0.166007
C 	-2.067847	-0.345371	0.424287
O 	-2.733459	0.703179	-0.429498
H 	3.768488	0.770463	-0.102262
H 	2.211743	1.681135	-0.561196
H 	2.541524	1.144301	1.203201
H 	2.252662	-0.964246	-1.346642
H 	2.499115	-1.427405	0.471710
H 	-2.609727	-1.339397	0.228997
H 	-2.146546	-0.141696	1.577454
H 	-2.282770	1.640912	-0.229838
