9
02/11/2019 18:17, XYZ structure generated by mol3D Class, molSimplify
C 	-1.209867	-0.238226	-0.021516
C 	0.086155	0.554853	0.046631
O 	1.232056	-0.261118	-0.109483
H 	-2.080477	0.423141	0.051121
H 	-1.272385	-0.962280	0.800823
H 	-1.268423	-0.787496	-0.964871
H 	0.130382	1.279886	-0.771835
H 	0.133290	1.127045	0.986567
H 	1.244644	-0.888184	0.623749
