12
02/11/2019 18:37, XYZ structure generated by mol3D Class, molSimplify
C 	1.548526	0.515183	-0.101645
C 	0.589340	-0.615586	0.262241
O 	-0.658061	-0.543189	-0.390656
C 	-1.517605	0.440848	0.111656
H 	2.543007	0.303560	0.345506
H 	1.651066	0.630217	-1.186066
H 	1.208160	1.478041	0.319834
H 	0.458299	-0.671923	1.346401
H 	0.986466	-1.593878	-0.067484
H 	-1.149186	1.473899	-0.035473
H 	-2.459256	0.328317	-0.413203
H 	-1.716822	0.336059	1.190747
