9
02/13/2019 22:15, XYZ structure generated by mol3D Class, molSimplify
C 	1.133152	-0.276963	-0.000026
C 	0.606163	0.983459	-0.000011
N 	-0.757090	0.800914	0.000005
C 	-0.980855	-0.541237	-0.000015
N 	0.136065	-1.223637	0.000051
H 	2.176999	-0.562273	-0.000007
H 	1.056059	1.965270	-0.000072
H 	-1.457616	1.524717	0.000327
H 	-1.979014	-0.960294	-0.000409
