15
02/13/2019 22:15, XYZ structure generated by mol3D Class, molSimplify
C 	1.904068	-0.009437	0.206999
C 	0.483694	0.041552	-0.448107
C 	-0.486466	-1.075135	0.021646
C 	-1.574534	-0.032564	0.158041
C 	-0.499393	1.100452	-0.015308
H 	1.776585	-0.266057	1.281595
H 	2.404485	-0.878663	-0.136219
H 	2.486437	0.914056	0.074451
H 	0.577131	-0.018391	-1.527664
H 	-0.739428	-1.859100	-0.695284
H 	-0.226733	-1.670189	0.959929
H 	-2.116617	0.027895	1.144781
H 	-2.307312	-0.009038	-0.727584
H 	-0.186301	1.604412	0.906031
H 	-0.695709	1.858975	-0.799428
