14
03/25/2019 10:01, XYZ structure generated by mol3D Class, molSimplify
C 	2.329954	0.210030	-0.026419
O 	1.117866	-0.580123	-0.333593
C 	0.004287	-0.163446	0.468429
C 	-0.755141	1.119138	0.059907
O 	-1.891431	0.238464	-0.353800
C 	-1.233632	-0.950720	0.124827
H 	2.869189	0.066364	-1.100028
H 	2.036555	1.382266	0.281739
H 	3.001702	-0.514020	0.936359
H 	0.452319	0.040534	1.542418
H 	-0.952457	1.719702	0.936388
H 	-0.391243	1.857656	-0.732382
H 	-1.867174	-1.397757	0.944397
H 	-0.942088	-1.563151	-0.692408
