15
02/13/2019 22:15, XYZ structure generated by mol3D Class, molSimplify
C 	0.961563	-1.387681	0.097841
C 	0.160222	0.000129	-0.020313
C 	0.909635	1.325056	-0.061769
C 	-1.176690	-0.046011	0.716039
C 	-1.097196	0.099183	-0.743287
H 	1.403882	-1.508060	1.142789
H 	1.872260	-1.265410	-0.624613
H 	0.347761	-2.252850	-0.137639
H 	0.972156	1.845259	-1.401913
H 	2.192283	1.118743	0.325373
H 	0.089428	2.119657	0.796104
H 	-1.185816	0.834778	1.350101
H 	-1.427368	-0.937768	1.172868
H 	-1.327175	1.020229	-1.318757
H 	-1.334840	-0.863556	-1.167518
