13
02/13/2019 22:15, XYZ structure generated by mol3D Class, molSimplify
C 	-1.865642	-0.638304	0.190004
O 	-1.252967	0.574637	-0.288836
C 	0.028334	0.700109	0.199961
O 	0.833839	-0.203308	-0.474864
C 	2.115487	-0.308878	0.147624
H 	-1.244007	-1.566536	-0.062233
H 	-1.995171	-0.594567	1.321484
H 	-2.845667	-0.708852	-0.307191
H 	0.017821	0.464277	1.310943
H 	0.308797	1.753952	-0.037634
H 	2.711485	-1.055203	-0.397437
H 	2.010722	-0.629842	1.198819
H 	2.657493	0.657422	0.090781
