13
02/13/2019 22:15, XYZ structure generated by mol3D Class, molSimplify
C 	1.475235	-1.028087	-0.189551
C 	0.549628	0.114622	0.429846
O 	0.705658	1.414373	-0.216268
C 	-0.889457	-0.309104	0.612595
O 	-1.695012	-0.116410	-0.582150
H 	1.716478	-1.945662	0.452944
H 	1.124860	-1.570846	-1.150882
H 	2.498712	-0.608706	-0.379180
H 	0.851809	0.338616	1.518891
H 	0.112775	1.277452	-1.028810
H 	-0.956233	-1.328267	0.893294
H 	-1.191417	0.402328	1.421396
H 	-2.672050	0.297848	-0.289125
