17
02/13/2019 22:15, XYZ structure generated by mol3D Class, molSimplify
C 	-2.030590	-0.699709	0.032386
C 	-1.443424	0.695695	-0.166544
C 	0.072125	0.698259	0.215196
C 	0.920341	-0.472833	-0.198777
C 	2.406759	-0.112820	0.072637
H 	-3.141355	-0.699239	-0.128681
H 	-1.865965	-1.074161	1.037721
H 	-1.480055	-1.373804	-0.645774
H 	-1.780711	1.506977	0.559793
H 	-1.682798	1.005157	-1.201183
H 	0.028963	0.610383	1.267742
H 	0.456807	1.689103	-0.185941
H 	0.696001	-1.465383	0.558532
H 	0.778391	-0.790637	-1.261862
H 	3.023304	-1.054683	-0.120952
H 	2.704045	0.336207	1.195767
H 	2.914041	0.596266	-0.769981
