14
03/25/2019 10:01, XYZ structure generated by mol3D Class, molSimplify
C 	1.181585	1.248581	0.563236
C 	0.655879	0.191846	-0.410653
N 	1.555210	-0.946562	-0.428062
C 	-0.769393	-0.194018	0.008940
N 	-1.761274	0.641800	-0.407294
O 	-0.993325	-1.173536	0.702864
H 	1.213834	0.835173	1.577141
H 	0.545902	2.139091	0.572143
H 	2.196093	1.541587	0.278689
H 	0.636065	0.619437	-1.421363
H 	1.399328	-1.472723	0.433202
H 	1.270115	-1.579646	-1.175433
H 	-2.698529	0.483555	-0.077549
H 	-1.577254	1.465289	-0.956614
