8
03/25/2019 10:02, XYZ structure generated by mol3D Class, molSimplify
N 	-2.014673	0.083436	-0.117245
C 	-0.751210	0.075926	0.051103
N 	0.194487	1.075959	0.201913
N 	1.429300	0.554280	-0.074864
N 	1.318521	-0.658508	-0.122603
O 	0.038795	-1.132504	0.116718
H 	-2.223204	-0.916804	-0.189333
H 	0.096761	2.109466	-0.704256
