8
02/11/2019 18:37, XYZ structure generated by mol3D Class, molSimplify
C 	1.692768	-0.332317	0.019046
C 	0.586699	0.449751	-0.002716
C 	-0.715090	0.019013	-0.090311
C 	-1.922756	-0.105367	0.061889
H 	2.750298	0.071605	0.176921
H 	1.634239	-1.442982	-0.155276
H 	0.849044	1.507158	0.097901
H 	-3.003091	-0.134175	0.024404
