13
03/25/2019 10:01, XYZ structure generated by mol3D Class, molSimplify
O 	2.763104	0.011970	0.029444
C 	1.543031	-0.299950	0.025135
N 	0.448680	0.537321	0.098623
C 	-0.797831	0.192079	-0.507868
C 	-1.685919	-0.927693	0.111464
C 	-2.067764	0.512321	0.264237
H 	1.134213	-1.367697	0.113648
H 	0.755958	1.517618	-0.049359
H 	-0.930417	0.246339	-1.573484
H 	-1.303396	-1.532128	0.968486
H 	-2.267248	-1.530803	-0.572409
H 	-1.875835	1.024716	1.205535
H 	-2.811534	0.881630	-0.441228
