11
02/13/2019 22:15, XYZ structure generated by mol3D Class, molSimplify
C 	-0.618676	1.346375	0.046903
N 	-0.400087	-0.045519	-0.299377
O 	-1.419118	-0.869294	0.215414
C 	0.846540	-0.591932	-0.042186
N 	1.890836	0.127868	0.049692
H 	0.218903	1.921762	-0.350528
H 	-1.553911	1.682341	-0.406895
H 	-0.667309	1.483551	1.134774
H 	-1.952781	-1.085107	-0.561259
H 	0.796194	-1.682850	0.021968
H 	2.708032	-0.467285	0.159879
