13
02/13/2019 22:15, XYZ structure generated by mol3D Class, molSimplify
N 	-1.461201	-0.782745	-0.240281
C 	-0.786700	0.282185	0.429582
C 	0.012974	1.255204	-0.441141
C 	0.734134	0.239868	0.423444
N 	1.465690	-0.813767	-0.236381
H 	-1.257460	-1.724343	0.269346
H 	-2.494093	-0.591788	-0.254770
H 	-1.225649	0.682956	1.334973
H 	0.097675	2.266769	-0.137998
H 	0.043775	1.120200	-1.526287
H 	1.200245	0.707794	1.304456
H 	2.385858	-0.462163	-0.482464
H 	1.658701	-1.526923	0.458584
