12
02/13/2019 22:15, XYZ structure generated by mol3D Class, molSimplify
C 	-1.649331	-0.857428	0.179274
C 	-1.089832	0.443997	-0.401971
C 	0.170857	0.950206	0.286473
C 	1.305719	0.072712	0.058673
N 	2.160208	-0.674487	-0.168264
H 	-1.834060	-0.709107	1.249063
H 	-0.870838	-1.642456	0.061385
H 	-2.535364	-1.182843	-0.363423
H 	-1.819084	1.244154	-0.308007
H 	-0.919332	0.344876	-1.470812
H 	-0.009474	1.057623	1.348887
H 	0.428925	1.969100	-0.077898
