11
03/25/2019 10:02, XYZ structure generated by mol3D Class, molSimplify
C 	-2.092393	0.016270	0.013539
C 	-0.605621	-0.120626	-0.000199
N 	0.159942	-1.133087	-0.002784
C 	1.455653	-0.693261	0.034790
C 	1.417917	0.695078	-0.009775
O 	0.099065	1.041479	-0.038727
H 	-2.465935	-0.689577	0.803088
H 	-2.533033	-0.230011	-0.955926
H 	-2.399760	1.073699	0.241654
H 	2.257407	-1.390521	-0.026115
H 	2.142153	1.484469	0.133911
