11
03/25/2019 10:02, XYZ structure generated by mol3D Class, molSimplify
N 	2.754565	-0.382322	-0.000561
C 	1.692254	0.318213	-0.011855
N 	0.392622	-0.097187	0.009935
N 	-0.677405	0.784768	0.010421
C 	-1.924283	0.268873	-0.003464
O 	-2.142680	-0.930415	-0.006294
H 	2.542677	-1.381421	0.027427
H 	1.786886	1.410733	-0.043971
H 	0.084464	-1.061211	0.030341
H 	-0.469730	1.771408	-0.000421
H 	-2.702760	1.046376	-0.006175
