9
02/13/2019 22:15, XYZ structure generated by mol3D Class, molSimplify
O 	1.824892	-0.017738	-0.155808
C 	0.654089	0.057859	0.023840
C 	-0.530909	1.108287	0.112854
C 	-1.390343	-0.177573	-0.184044
O 	-0.244727	-1.049495	0.212226
H 	-0.360296	1.914314	-0.703070
H 	-0.705632	1.405905	1.286741
H 	-2.462489	-0.398083	0.432264
H 	-1.514086	-0.426439	-1.347545
