9
02/11/2019 18:37, XYZ structure generated by mol3D Class, molSimplify
C 	-1.689479	0.176851	0.100591
N 	-0.349377	-0.482241	-0.276309
C 	0.663379	0.306408	0.002516
O 	1.832604	-0.043641	0.126228
H 	-2.480577	0.076196	-1.173810
H 	-1.106337	1.548358	0.672978
H 	-2.520522	-0.585210	1.293933
H 	-0.279654	-1.513218	-0.447216
H 	0.336054	1.342280	0.262242
