11
02/13/2019 22:15, XYZ structure generated by mol3D Class, molSimplify
N 	1.573885	-0.720289	-0.000870
C 	0.473239	0.103649	-0.000597
N 	0.481941	1.383335	0.000711
C 	-0.824804	-0.628952	0.000873
C 	-1.994479	0.000161	-0.000582
H 	1.483465	-1.721617	0.002380
H 	2.504431	-0.336366	0.002426
H 	1.437427	1.742975	-0.000237
H 	-0.781319	-1.717760	0.004218
H 	-2.934390	-0.543255	-0.000422
H 	-2.023212	1.086087	-0.002527
