9
02/13/2019 22:15, XYZ structure generated by mol3D Class, molSimplify
C 	-2.523137	-0.002893	-0.000487
C 	-1.063221	0.004433	-0.000222
C 	0.144286	0.001725	0.001266
C 	1.529006	0.000874	-0.000294
C 	2.734863	-0.002604	-0.000144
H 	-2.915958	0.698139	0.743591
H 	-2.913019	0.288984	-0.980196
H 	-2.906040	-1.001411	0.237303
H 	3.802796	-0.004075	-0.002125
