9
02/13/2019 22:15, XYZ structure generated by mol3D Class, molSimplify
C 	0.001352	1.223091	-0.007480
C 	-1.129054	0.199460	-0.000745
N 	-0.716145	-1.017492	-0.004466
N 	0.716293	-1.014422	-0.015260
C 	1.124881	0.187394	0.022226
H 	0.040268	1.751790	-0.936364
H 	0.001229	1.906502	0.841252
H 	-2.192920	0.407802	0.154824
H 	2.182975	0.504020	0.047660
