16
03/25/2019 10:02, XYZ structure generated by mol3D Class, molSimplify
C 	1.839107	-0.132125	-0.459475
C 	0.822361	-0.071664	0.672611
C 	-0.413732	0.795981	0.601133
N 	-0.836868	1.508402	-0.522336
C 	-0.487278	-0.709118	0.620389
N 	-1.033033	-1.430321	-0.461241
H 	1.409548	0.407483	-1.359730
H 	2.728372	0.385886	-0.086236
H 	2.073652	-1.178997	-0.725640
H 	1.257482	-0.091128	1.661872
H 	-0.652686	1.345836	1.520450
H 	-0.185987	2.257264	-0.801533
H 	-0.977573	0.938206	-1.352567
H 	-0.837862	-1.113703	1.557110
H 	-0.378234	-1.604268	-1.257364
H 	-1.900289	-1.069658	-0.806614
