13
02/13/2019 22:15, XYZ structure generated by mol3D Class, molSimplify
O 	1.812548	0.508772	-0.310096
C 	0.994957	-0.797753	0.012151
C 	-0.388039	-0.343968	0.648200
C 	-1.641464	-0.420909	-0.286672
C 	-0.929244	0.961416	-0.047194
H 	1.166322	1.736541	0.615423
H 	1.504238	-1.568991	0.692049
H 	0.783388	-1.457784	-1.018473
H 	-0.412523	-0.461140	1.727590
H 	-1.582747	-1.066958	-1.206506
H 	-2.514765	-0.534874	0.313908
H 	-1.524194	1.760191	0.471269
H 	-0.145330	1.484131	-0.879075
