12
03/25/2019 10:02, XYZ structure generated by mol3D Class, molSimplify
N 	1.831008	-0.523572	0.058029
N 	0.559072	0.040869	0.062392
C 	0.174852	1.488959	-0.140437
C 	-1.291956	0.886748	0.111571
C 	-0.658329	-0.523756	0.062210
O 	-0.991719	-1.700072	-0.120460
H 	2.476282	-0.132648	0.792292
H 	2.298645	-0.409887	-0.851437
H 	0.490741	2.162513	0.628047
H 	0.394714	1.948655	-1.129329
H 	-2.007556	1.122739	-0.678223
H 	-1.770049	1.333607	1.080250
