9
02/13/2019 22:15, XYZ structure generated by mol3D Class, molSimplify
C 	1.152143	-0.258356	0.026550
C 	0.610343	0.994201	-0.049255
N 	-0.742159	0.777047	0.022902
C 	-0.981870	-0.516422	0.023406
N 	0.101916	-1.245151	-0.023260
H 	2.239275	-0.501312	0.065172
H 	0.988848	1.972710	0.103058
H 	-1.489435	1.394432	-0.066744
H 	-1.939039	-0.912793	-0.104858
