9
02/13/2019 22:15, XYZ structure generated by mol3D Class, molSimplify
C 	1.289612	-1.042176	0.021623
C 	0.395005	0.209423	-0.075140
O 	0.971995	1.296197	0.020985
C 	-1.026746	0.065602	-0.041443
C 	-2.182914	-0.233808	0.038189
H 	1.718292	-1.055398	1.060521
H 	2.157487	-0.925267	-0.718990
H 	0.733307	-2.001393	-0.199333
H 	-3.208549	-0.402550	0.200760
