9
02/13/2019 22:15, XYZ structure generated by mol3D Class, molSimplify
N 	-1.828601	-0.704499	-0.047590
C 	-1.310804	0.483185	0.005083
N 	0.087358	0.630542	0.014648
C 	1.017622	-0.410031	0.095947
O 	2.193486	-0.113131	-0.060353
H 	-2.823704	-0.629699	-0.063590
H 	-1.794961	1.445230	0.228862
H 	0.484275	1.590941	-0.216563
H 	0.610899	-1.435910	0.263864
