13
03/25/2019 10:02, XYZ structure generated by mol3D Class, molSimplify
C 	2.753049	-0.235939	-0.331323
C 	1.758343	0.261268	0.388017
C 	0.349411	-0.371299	0.401410
C 	-0.595235	0.538081	-0.364717
C 	-1.978102	0.085907	-0.103762
N 	-3.054102	-0.340987	0.053507
H 	3.672587	0.298644	-0.413228
H 	2.657707	-1.161645	-0.883503
H 	1.811775	1.213318	0.936091
H 	-0.051274	-0.386747	1.389823
H 	0.359306	-1.378754	-0.004360
H 	-0.506368	1.606707	-0.061188
H 	-0.434835	0.543180	-1.467059
