16
03/25/2019 10:01, XYZ structure generated by mol3D Class, molSimplify
C 	2.339103	0.032687	0.342220
N 	1.052014	-0.009360	-0.457086
C 	-0.023058	0.994902	-0.073980
C 	-1.092260	-0.037506	-0.346126
N 	-2.283109	0.073546	0.480614
C 	0.037857	-1.078421	-0.144160
H 	3.017642	-0.803227	0.005339
H 	2.784664	0.972594	0.107503
H 	2.088155	-0.036020	1.456554
H 	0.136983	1.286663	1.027246
H 	0.065793	2.024203	-0.563814
H 	-1.422861	-0.096771	-1.439205
H 	-2.863334	-0.766992	0.244761
H 	-2.804834	0.898487	0.084992
H 	0.080786	-2.075509	-0.751025
H 	0.086685	-1.243417	0.931229
