10
02/13/2019 22:15, XYZ structure generated by mol3D Class, molSimplify
O 	2.115232	0.104915	-0.211399
C 	0.896708	-0.505604	0.190110
C 	-0.031236	0.683057	0.232749
N 	-1.312863	0.699910	-0.080622
O 	-1.831652	-0.653994	-0.090066
H 	2.741022	-0.610020	0.225418
H 	0.935993	-0.933751	1.267711
H 	0.577878	-1.296403	-0.471736
H 	0.306612	1.749267	0.096925
H 	-2.763070	-0.379532	-0.248848
