14
02/13/2019 22:15, XYZ structure generated by mol3D Class, molSimplify
C 	-1.993732	-0.398161	0.054571
C 	-0.581614	-0.155321	-0.426013
N 	0.011577	1.147092	-0.092083
C 	0.609337	-0.064398	0.432090
C 	2.036836	-0.374237	-0.085076
H 	-2.699090	0.202484	-0.524585
H 	-2.067278	-0.051975	1.143197
H 	-2.440689	-1.467386	0.165759
H 	-0.444096	-0.534764	-1.451199
H 	-0.475730	1.594651	0.657839
H 	0.530400	-0.306425	1.496750
H 	2.272070	-1.389275	0.206023
H 	2.790247	0.303341	0.333427
H 	1.979228	-0.362209	-1.221902
