12
02/13/2019 22:15, XYZ structure generated by mol3D Class, molSimplify
O 	1.570510	0.031123	-0.402316
C 	0.575819	-0.037416	0.538041
C 	-0.550357	-1.044674	0.300067
N 	-1.025032	-0.023675	-0.701149
C 	-0.511557	1.092548	0.271458
H 	1.044203	-0.098376	-1.214308
H 	1.218391	-0.070128	1.446884
H 	-0.200940	-2.122635	-0.046039
H 	-1.211668	-1.203505	1.249579
H 	-2.042561	0.041333	-0.964234
H 	-0.199011	2.115284	-0.016282
H 	-1.164881	1.048525	1.266065
