12
02/13/2019 22:15, XYZ structure generated by mol3D Class, molSimplify
C 	2.242469	-0.454711	-0.162360
C 	1.172511	0.613637	0.079545
C 	-0.158387	-0.059058	0.344207
N 	-1.146669	0.412428	-0.281175
O 	-2.305744	-0.358360	0.047821
H 	2.104054	-0.962269	-1.103997
H 	2.180111	-1.296658	0.593668
H 	3.300292	-0.097139	-0.092035
H 	1.471751	1.229171	0.889440
H 	1.104049	1.204646	-0.840513
H 	-0.204982	-0.931472	1.022097
H 	-2.955163	0.102697	-0.530448
