10
02/13/2019 22:15, XYZ structure generated by mol3D Class, molSimplify
C 	-1.368256	-0.763896	0.129431
O 	-1.077510	0.406185	-0.468988
C 	0.054672	0.940374	0.217605
C 	1.254028	0.224879	-0.000846
N 	1.937228	-0.757387	-0.052898
H 	-1.407547	-0.647177	1.293364
H 	-2.363904	-1.185043	-0.255346
H 	-0.592869	-1.486969	-0.196104
H 	-0.086873	0.886440	1.357724
H 	0.193031	2.007900	-0.001532
