12
02/13/2019 22:15, XYZ structure generated by mol3D Class, molSimplify
C 	2.319778	-0.435181	-0.090236
C 	1.164145	0.576349	0.018608
C 	-0.148350	-0.179183	0.273339
N 	-1.208942	0.478412	-0.211311
O 	-2.301413	-0.348527	0.026317
H 	2.077558	-1.064916	-0.950612
H 	2.381553	-1.005566	0.863480
H 	3.303256	0.046044	-0.251229
H 	1.425661	1.334646	0.739284
H 	1.033651	1.195337	-0.955625
H 	-0.311892	-1.143262	0.849076
H 	-3.053577	0.455590	-0.274971
