11
02/13/2019 22:15, XYZ structure generated by mol3D Class, molSimplify
C 	2.251932	-0.101222	0.512986
O 	0.880165	-0.496008	-0.464139
C 	-0.067686	0.548595	-0.436808
C 	-1.459602	0.060297	0.066345
C 	-2.612391	-0.209923	0.328144
H 	2.911874	1.345392	0.322367
H 	2.887459	-0.987062	0.020989
H 	1.945748	-0.077642	1.939810
H 	-0.128913	1.174392	-1.423255
H 	0.357187	1.253461	0.352102
H 	-3.733102	-0.239890	0.550044
