8
02/13/2019 22:15, XYZ structure generated by mol3D Class, molSimplify
C 	-2.079593	-0.085604	0.194141
N 	-0.869972	-0.442810	-0.290625
O 	-0.070201	0.631511	-0.041698
C 	1.296319	0.391092	-0.013360
O 	1.842364	-0.656394	0.128940
H 	-2.821271	-0.812092	0.050192
H 	-2.406651	0.971603	0.676171
H 	1.829108	1.373024	-0.225448
