8
02/13/2019 22:15, XYZ structure generated by mol3D Class, molSimplify
O 	-2.211642	0.056800	-0.106338
N 	-0.893418	-0.477577	0.081351
C 	-0.011687	0.495806	0.059376
C 	1.356514	0.131665	0.138348
C 	2.556905	-0.217893	-0.153595
H 	-2.810570	-0.714142	0.066927
H 	-0.311951	1.502376	-0.023709
H 	3.670319	-0.340647	-0.011321
