15
02/13/2019 22:15, XYZ structure generated by mol3D Class, molSimplify
C 	1.925492	-0.100884	0.077022
O 	0.704007	-0.592974	-0.351920
C 	-0.423255	-0.028694	0.277968
C 	-1.620249	-0.903697	0.005897
C 	-0.617458	1.471560	-0.073415
H 	2.227064	0.863695	-0.457321
H 	2.686272	-0.931284	-0.158998
H 	1.910769	0.100750	1.219264
H 	-0.199429	-0.027635	1.370158
H 	-2.559094	-0.567020	0.487387
H 	-1.450805	-1.951411	0.223364
H 	-1.886989	-0.865421	-1.087489
H 	0.243429	2.078348	0.235937
H 	-0.692014	1.566619	-1.195567
H 	-1.522988	1.878541	0.482866
