15
02/13/2019 22:15, XYZ structure generated by mol3D Class, molSimplify
C 	1.957023	-0.113965	0.074977
O 	0.678269	-0.587227	-0.322391
C 	-0.433599	0.002535	0.317328
C 	-1.621202	-0.888023	-0.028977
C 	-0.615744	1.443795	-0.106489
H 	2.071957	0.984942	-0.079695
H 	2.666892	-0.642186	-0.586524
H 	2.173624	-0.323931	1.156060
H 	-0.261295	-0.043732	1.420348
H 	-2.534090	-0.587177	0.479670
H 	-1.436753	-1.895680	0.348471
H 	-1.767653	-0.939130	-1.097236
H 	0.237135	2.093392	0.138372
H 	-0.792328	1.451256	-1.192825
H 	-1.454104	1.884090	0.429020
