14
02/13/2019 22:15, XYZ structure generated by mol3D Class, molSimplify
C 	1.722686	-0.017543	0.365322
C 	0.491233	0.058955	-0.528044
C 	-0.604388	1.058385	-0.138930
C 	-1.327610	-0.129626	0.482795
N 	-0.492643	-1.010363	-0.397013
H 	1.352027	-0.160086	1.372576
H 	2.277112	0.939996	0.345425
H 	2.331741	-0.873898	0.094302
H 	0.859470	0.193772	-1.592213
H 	-0.274854	1.919591	0.479714
H 	-1.137604	1.414882	-1.038890
H 	-2.433794	-0.198464	0.316006
H 	-1.134756	-0.147525	1.585376
H 	-0.098521	-1.784045	0.119548
