15
03/25/2019 10:01, XYZ structure generated by mol3D Class, molSimplify
C 	-1.913942	-0.885280	0.025396
C 	-0.829299	0.133378	-0.108530
C 	-1.081489	1.438501	0.118067
C 	0.543988	-0.395514	-0.404731
C 	1.666591	-0.642663	0.596676
N 	1.687404	0.577706	-0.253177
H 	-2.868424	-0.297676	0.200644
H 	-1.969789	-1.482792	-0.908092
H 	-1.779707	-1.507821	0.935378
H 	-2.105132	1.753466	0.353433
H 	-0.305828	2.207357	0.054054
H 	0.638970	-0.981697	-1.362113
H 	2.449395	-1.400539	0.421712
H 	1.455081	-0.462799	1.616628
H 	2.395241	0.368728	-0.961688
