16
03/25/2019 10:01, XYZ structure generated by mol3D Class, molSimplify
C 	-1.090863	1.088342	0.839581
C 	-0.649872	0.203287	-0.325771
O 	-1.694846	-0.901188	-0.514075
C 	0.725335	-0.302764	-0.361529
C 	1.177628	-1.015732	0.888947
O 	1.569252	0.876290	-0.455548
H 	-1.893915	1.768256	0.527649
H 	-1.424250	0.484937	1.724782
H 	-0.099631	1.633745	1.105337
H 	-0.836954	0.861110	-1.213599
H 	-1.891694	-0.826033	-1.657987
H 	0.899748	-0.867312	-1.221596
H 	0.301985	-1.763698	1.069848
H 	2.068321	-1.649525	0.545540
H 	1.492096	-0.333622	1.656242
H 	1.445954	1.407199	-1.281464
