9
02/11/2019 18:37, XYZ structure generated by mol3D Class, molSimplify
N 	1.463932	-0.531655	-0.102852
C 	0.624135	0.631610	0.017092
C 	-0.816003	0.243076	-0.002167
C 	-1.911025	-0.332191	-0.011331
H 	1.167860	-1.234593	0.557596
H 	2.417452	-0.364600	-0.058969
H 	0.910706	1.097398	0.952924
H 	0.790840	1.431872	-0.737591
H 	-2.923828	-0.541763	-0.054331
