12
03/25/2019 10:02, XYZ structure generated by mol3D Class, molSimplify
O 	2.148936	-0.115143	-0.026694
C 	0.808443	-0.002981	-0.425947
C 	-0.175189	-0.767197	0.411451
O 	-1.250930	-1.401125	-0.199429
C 	-0.177454	0.732571	0.470483
O 	-1.330007	1.299437	-0.096685
H 	2.653720	0.671490	-0.309915
H 	0.559212	0.067855	-1.505242
H 	0.289070	-1.313431	1.244362
H 	-1.905073	-0.687831	-0.242140
H 	0.209109	1.217000	1.361466
H 	-1.030763	2.014910	-0.691642
