13
02/13/2019 22:15, XYZ structure generated by mol3D Class, molSimplify
C 	1.873682	0.016693	-0.148590
C 	0.466994	-0.005018	0.453215
C 	-0.533286	1.014247	-0.067147
O 	-1.570176	0.011379	-0.101662
C 	-0.548392	-1.049178	-0.073746
H 	2.500673	0.809024	0.192538
H 	1.761991	0.140325	-1.255623
H 	2.483056	-0.875520	0.048590
H 	0.461614	0.012906	1.528075
H 	-0.199230	1.303592	-1.122885
H 	-0.772363	1.955547	0.538436
H 	-0.789614	-1.822001	0.646679
H 	-0.237278	-1.427575	-1.058634
