8
02/11/2019 18:07, XYZ structure generated by mol3D Class, molSimplify
C 	0.809769	-0.016004	0.004678
C 	-0.793977	-0.032449	0.011607
H 	1.348046	1.024126	-0.240634
H 	1.263643	-0.062097	0.884095
H 	1.049851	-0.707864	-0.809991
H 	-1.622506	0.839649	0.660367
H 	-1.103005	-0.992739	0.419643
H 	-1.131058	0.402000	-1.123137
