9
02/13/2019 22:15, XYZ structure generated by mol3D Class, molSimplify
O 	-1.577411	-0.590078	0.335174
C 	-0.499592	0.132834	-0.155444
O 	-0.598534	1.365239	-0.171394
C 	0.748049	-0.673439	-0.466096
C 	1.945154	-0.031581	0.371621
H 	-1.293485	-1.550840	0.208103
H 	0.807648	-1.765638	-1.428362
H 	2.806901	-0.518849	0.231738
H 	2.011108	1.034228	1.364927
