17
03/25/2019 10:01, XYZ structure generated by mol3D Class, molSimplify
C 	-2.408804	0.115248	-0.300570
C 	-1.290669	-0.690091	0.397174
N 	-0.053689	-0.149937	-0.276397
C 	0.333559	1.140652	0.053575
C 	1.167578	-0.005961	0.380613
C 	2.381705	-0.395455	-0.284286
H 	-2.396535	-0.297803	-1.329556
H 	-2.093385	1.161770	-0.365254
H 	-3.300346	-0.144813	0.261563
H 	-1.361920	-1.820209	0.201898
H 	-1.224587	-0.527345	1.446276
H 	-0.275051	1.642105	0.786535
H 	0.573324	1.836573	-0.796060
H 	1.151379	-0.392494	1.336295
H 	2.593493	-1.421481	-0.374200
H 	2.565926	0.269856	-1.193028
H 	3.271240	-0.098344	0.321118
