16
03/25/2019 10:01, XYZ structure generated by mol3D Class, molSimplify
C 	-1.993878	-0.120934	-0.596566
O 	-1.381275	0.089322	0.659118
C 	0.018279	-0.001909	0.678460
C 	0.774548	-1.066718	-0.148141
C 	1.914195	0.003721	-0.326322
C 	0.854191	1.102987	0.000852
H 	-1.438694	0.473618	-1.505261
H 	-3.067607	0.334936	-0.424247
H 	-2.058100	-1.308171	-0.874036
H 	0.269363	-0.061542	1.745875
H 	1.022643	-2.003858	0.389144
H 	0.334663	-1.259176	-1.149920
H 	2.435170	0.058816	-1.265132
H 	2.662504	-0.075513	0.452690
H 	1.124447	1.958549	0.610480
H 	0.339215	1.451225	-0.893418
