15
02/13/2019 22:15, XYZ structure generated by mol3D Class, molSimplify
C 	-2.372167	-0.262888	-0.110073
N 	-1.170397	0.561753	0.019821
C 	0.014668	-0.356372	0.119277
C 	1.214104	0.483910	-0.169779
N 	2.357718	-0.308697	0.165810
H 	-2.467307	-1.106232	0.657634
H 	-3.237218	0.385519	-0.019088
H 	-2.343796	-0.700007	-1.162703
H 	-1.302880	1.100332	0.960436
H 	0.095987	-0.799350	1.088308
H 	-0.167688	-1.293653	-0.561046
H 	1.220867	1.461774	0.421882
H 	1.176419	0.750690	-1.280273
H 	3.230632	0.266527	-0.534640
H 	2.198922	-1.406881	-0.293548
