15
02/13/2019 22:15, XYZ structure generated by mol3D Class, molSimplify
C 	2.186919	0.177124	0.005762
C 	0.916845	-0.517867	-0.147076
C 	-0.392931	0.018520	0.472443
C 	-1.362117	0.938570	-0.151799
C 	-1.677427	-0.619309	-0.102825
H 	2.859180	-0.364232	-0.660509
H 	2.538039	0.220954	1.131392
H 	2.197650	1.206287	-0.402706
H 	0.815324	-0.784230	-1.299320
H 	0.952166	-1.566060	0.314722
H 	-0.318776	0.065196	1.550956
H 	-1.064909	1.469144	-1.073516
H 	-1.927708	1.655089	0.416240
H 	-2.343936	-1.102339	0.643245
H 	-1.630743	-1.090502	-1.185591
