13
02/13/2019 22:15, XYZ structure generated by mol3D Class, molSimplify
C 	1.631701	-0.807828	0.150718
C 	0.455378	0.110168	-0.065721
C 	0.580967	1.438242	-0.094178
C 	-0.853530	-0.555030	-0.260492
C 	-2.017392	-0.104046	0.203989
H 	2.563399	-0.246607	0.269856
H 	1.486458	-1.429372	1.042261
H 	1.751464	-1.491365	-0.698920
H 	1.541162	1.921962	0.071653
H 	-0.269330	2.083932	-0.297447
H 	-0.831898	-1.499518	-0.807173
H 	-2.947026	-0.634700	0.018497
H 	-2.076792	0.806314	0.797186
