16
03/25/2019 10:01, XYZ structure generated by mol3D Class, molSimplify
C 	2.593015	-0.213321	-0.058089
O 	1.327207	0.367491	0.080338
C 	0.284519	-0.481466	0.001978
C 	-0.973914	-0.049368	0.015486
C 	-2.164834	-1.023642	0.018566
C 	-1.200132	1.446439	-0.043522
H 	3.172633	-0.162951	0.884124
H 	2.526490	-1.310603	-0.357953
H 	3.165058	0.295574	-0.855389
H 	0.536305	-1.557180	-0.086987
H 	-2.232741	-1.719390	-0.816492
H 	-2.209403	-1.607114	0.970223
H 	-3.097394	-0.447436	-0.020477
H 	-0.988548	1.872863	0.990287
H 	-2.285439	1.644540	-0.424928
H 	-0.441381	1.887996	-0.776583
