10
02/13/2019 22:15, XYZ structure generated by mol3D Class, molSimplify
C 	1.647287	-0.490369	0.065275
N 	0.342992	0.000537	-0.227582
O 	0.346052	1.389808	0.029385
C 	-0.799851	-0.725201	-0.014781
O 	-1.889918	-0.227179	0.065742
H 	2.034945	0.019919	1.026807
H 	2.470845	-0.170177	-0.718466
H 	1.680583	-1.581781	0.367621
H 	-0.653175	1.723119	0.266540
H 	-0.605125	-1.800576	-0.120076
