17
02/13/2019 22:15, XYZ structure generated by mol3D Class, molSimplify
C 	2.041162	0.008949	-0.046853
C 	0.748086	-0.720168	0.198993
C 	-0.469474	-0.007312	-0.351634
C 	-1.788377	-0.852255	0.060817
C 	-0.544929	1.485004	0.098986
H 	2.966519	-0.505216	0.376698
H 	1.969908	0.999138	0.346607
H 	2.168228	0.156905	-1.151267
H 	0.737894	-1.726495	-0.311015
H 	0.735971	-0.854338	1.357841
H 	-0.450041	-0.041867	-1.357008
H 	-2.043886	-0.746088	1.087751
H 	-1.699880	-1.864189	-0.241757
H 	-2.626418	-0.509146	-0.642051
H 	-1.362908	2.012954	-0.306990
H 	-0.695399	1.625363	1.234548
H 	0.346710	2.060031	-0.200944
