10
02/13/2019 22:15, XYZ structure generated by mol3D Class, molSimplify
C 	2.273594	0.041192	-0.086172
C 	0.845347	-0.469750	-0.027977
C 	-0.131640	0.451471	0.224255
C 	-1.447707	0.034824	0.029047
N 	-2.585570	-0.127903	-0.110944
H 	2.422152	1.464353	0.266766
H 	2.611125	-0.016822	-1.461856
H 	3.019259	-0.721639	0.839304
H 	0.716503	-1.532409	-0.176999
H 	0.134308	1.517822	0.417410
