14
02/13/2019 22:15, XYZ structure generated by mol3D Class, molSimplify
C 	1.212674	-1.207911	-0.049406
C 	0.427242	0.079263	-0.300135
N 	1.175258	1.259957	0.049699
C 	-0.935008	0.104398	0.380720
C 	-2.116864	-0.238244	-0.141660
H 	1.420112	-1.253532	1.033714
H 	0.434855	-2.015949	-0.193737
H 	2.054228	-1.293087	-0.716388
H 	0.249455	0.173930	-1.400260
H 	0.679526	2.087416	-0.402705
H 	1.207269	1.492929	1.056367
H 	-0.753713	0.475615	1.480554
H 	-2.944356	-0.342823	0.561818
H 	-2.308933	-0.552880	-1.177437
