10
03/25/2019 10:01, XYZ structure generated by mol3D Class, molSimplify
O 	1.281139	-1.373879	-0.101120
N 	0.353783	-0.360611	0.103985
C 	-0.977870	-0.763877	-0.070132
N 	-1.956255	0.021339	0.081290
C 	0.878472	0.924317	-0.021450
O 	0.239049	1.941308	-0.020383
H 	1.509220	-1.689069	0.785092
H 	-1.017773	-1.825782	-0.342812
H 	-2.821274	-0.482817	-0.112787
H 	1.979266	0.866607	-0.109839
