11
02/13/2019 22:15, XYZ structure generated by mol3D Class, molSimplify
N 	1.887910	-0.665907	0.036077
N 	1.211701	0.557210	-0.133541
C 	-0.140483	0.566499	0.146224
N 	-0.907810	-0.463139	-0.011781
N 	-2.218701	-0.134731	0.034327
H 	2.441034	-0.628477	-1.474877
H 	2.999196	-0.554950	1.252928
H 	1.926554	1.510089	-0.012428
H 	-0.699295	1.469158	0.140774
H 	-2.349749	1.122489	-0.023999
H 	-2.842336	-0.653276	-0.889315
