8
02/13/2019 22:15, XYZ structure generated by mol3D Class, molSimplify
C 	-0.166921	1.188092	0.047838
C 	1.063347	0.416297	-0.027856
N 	0.869281	-0.875579	-0.018296
O 	-0.525082	-0.996669	0.045633
C 	-1.137606	0.208626	-0.083033
H 	-0.383878	2.246198	0.028100
H 	2.109551	0.844380	0.118651
H 	-2.181182	0.117812	0.133968
