13
03/25/2019 10:02, XYZ structure generated by mol3D Class, molSimplify
C 	2.724310	-0.148131	-0.398177
C 	1.789235	0.273409	0.481009
C 	0.383251	-0.385027	0.432211
C 	-0.592513	0.421241	-0.405459
C 	-1.980403	0.015767	-0.119935
N 	-3.109650	-0.212040	0.055657
H 	3.713483	0.316160	-0.516573
H 	2.622032	-1.066748	-1.027532
H 	1.973087	1.095043	1.203381
H 	-0.065379	-0.475220	1.443280
H 	0.496811	-1.410396	0.048665
H 	-0.556773	1.516672	-0.222340
H 	-0.336127	0.167299	-1.462469
