14
03/25/2019 10:01, XYZ structure generated by mol3D Class, molSimplify
C 	1.213170	1.429534	0.141929
C 	1.188089	-0.066613	-0.420964
C 	0.954597	-1.050171	0.609053
C 	-0.195820	-0.834295	-0.417852
C 	-1.405989	-0.123414	-0.157449
C 	-2.461329	0.394542	0.091269
H 	1.259560	2.288303	-0.645732
H 	0.473537	1.604785	0.878757
H 	2.191063	1.414136	0.725915
H 	1.813167	-0.293743	-1.299428
H 	0.853020	-0.771294	1.658663
H 	1.453197	-2.055759	0.507099
H 	-0.256086	-1.701903	-1.127576
H 	-3.283818	0.957373	0.416873
