12
03/25/2019 10:01, XYZ structure generated by mol3D Class, molSimplify
C 	2.982383	0.258063	-0.048481
C 	1.570768	-0.188482	0.071681
C 	0.354213	-0.366132	0.011481
C 	-1.018749	-0.967678	-0.056615
N 	-2.085596	-0.296795	-0.003507
N 	-1.958014	1.066021	-0.021507
H 	3.099756	0.683983	-1.202906
H 	3.749317	-0.786060	0.363522
H 	3.048872	1.170923	0.799316
H 	-1.007942	-2.086204	-0.315592
H 	-2.852017	1.635947	0.192457
H 	-1.040133	1.459880	0.226648
