13
02/13/2019 22:15, XYZ structure generated by mol3D Class, molSimplify
C 	-1.893788	0.626808	0.037608
N 	-1.257068	-0.590813	-0.109227
N 	0.061717	-0.816331	-0.012185
C 	0.829843	0.269053	0.097129
C 	2.383299	0.189792	-0.024452
H 	-2.974793	0.472747	-0.203680
H 	-1.668513	1.306487	-0.743632
H 	-1.672908	1.274968	0.897404
H 	-1.711207	-1.516497	0.302378
H 	0.386924	1.278015	0.453383
H 	2.862900	0.300285	1.191119
H 	2.520167	-0.728545	-0.768288
H 	2.690689	1.241873	-0.754903
