13
02/13/2019 22:15, XYZ structure generated by mol3D Class, molSimplify
O 	-2.425294	-0.017446	0.178333
C 	-0.929857	-0.504360	0.119307
C 	-0.057614	0.601923	-0.428463
C 	1.329986	0.554926	0.272110
O 	2.002524	-0.673909	-0.200857
H 	-2.784583	0.904530	-0.931367
H 	-0.805320	-1.520929	-0.510335
H 	-0.685128	-0.735029	1.246881
H 	-0.532455	1.643588	-0.294540
H 	0.090676	0.472684	-1.537265
H 	1.227066	0.584898	1.390523
H 	1.930567	1.416556	-0.185582
H 	2.492272	-1.028682	1.163040
