9
02/13/2019 22:15, XYZ structure generated by mol3D Class, molSimplify
C 	-2.245061	0.106453	-0.158835
C 	-1.086807	-0.028862	0.138374
C 	0.301231	-0.191388	0.526350
C 	1.345602	0.675743	-0.031441
O 	1.202938	-0.662566	-0.467693
H 	-3.271166	0.228143	-0.429422
H 	0.457770	-0.622348	1.515623
H 	1.066455	1.438569	-0.756235
H 	2.231918	0.887527	0.567216
