11
02/13/2019 22:15, XYZ structure generated by mol3D Class, molSimplify
C 	-1.653203	-0.589206	0.265558
O 	-0.946852	0.327561	-0.558479
N 	0.072620	0.931176	0.181475
C 	1.305738	0.290555	0.150108
N 	1.442424	-0.937978	-0.148179
H 	-2.068791	-0.091925	1.159698
H 	-1.004481	-1.414652	0.576894
H 	-2.462100	-0.975553	-0.357957
H 	0.093473	1.902174	-0.093724
H 	2.102224	0.959974	0.494370
H 	2.418900	-1.195487	-0.049668
