8
02/11/2019 18:37, XYZ structure generated by mol3D Class, molSimplify
N 	1.478009	-0.408387	0.050624
N 	0.513278	0.622119	-0.081113
C 	-0.824206	0.450931	0.054651
O 	-1.372758	-0.640612	0.001879
H 	0.956497	-1.229796	0.616389
H 	1.523794	-0.807112	-0.930385
H 	0.956965	1.548998	0.069207
H 	-1.453054	1.370241	-0.012143
