13
02/13/2019 22:15, XYZ structure generated by mol3D Class, molSimplify
N 	-1.407566	-0.796464	-0.276261
C 	-0.730180	0.276119	0.435560
C 	-0.011025	1.265692	-0.422787
C 	0.766063	0.256788	0.430606
N 	1.384629	-0.821015	-0.199178
H 	-1.436204	-1.617320	0.313061
H 	-2.444382	-0.552502	-0.310494
H 	-1.224741	0.702129	1.317909
H 	0.019821	2.319933	-0.278081
H 	-0.082485	0.966929	-1.470263
H 	1.222005	0.654460	1.317771
H 	2.187602	-0.375354	-0.710554
H 	1.781092	-1.588540	0.394514
