11
02/13/2019 22:15, XYZ structure generated by mol3D Class, molSimplify
C 	1.010955	-0.675871	0.145347
C 	0.830438	0.941884	0.088155
O 	-0.484776	1.034767	-0.306371
C 	-1.119047	-0.158387	0.320526
O 	-0.336669	-1.161023	-0.341791
H 	1.815423	-1.103334	-0.664205
H 	1.278057	-0.972168	1.271309
H 	1.458807	1.369528	-0.782718
H 	1.055666	1.309098	1.132474
H 	-2.210392	-0.182718	0.002470
H 	-0.979492	-0.052047	1.551450
