11
02/13/2019 22:15, XYZ structure generated by mol3D Class, molSimplify
C 	-1.792574	-0.480981	0.064993
C 	-0.999599	0.599045	0.055546
C 	0.384838	0.569244	-0.337526
C 	1.393294	0.101754	0.609995
O 	0.949440	-0.739414	-0.493747
H 	-1.449802	-1.457445	-0.179286
H 	-2.803936	-0.405853	0.441429
H 	-1.430114	1.558855	0.271079
H 	0.689672	1.301098	-1.087428
H 	1.017027	-0.221606	1.557446
H 	2.453956	0.461788	0.563224
