10
02/13/2019 22:15, XYZ structure generated by mol3D Class, molSimplify
O 	-1.954841	0.377820	-0.010217
C 	-1.133421	-0.502336	0.032617
N 	0.191342	-0.178882	-0.043692
C 	1.571481	-0.553468	0.005445
C 	1.099876	0.865214	0.006749
H 	-1.339718	-1.604975	0.115861
H 	1.998307	-0.936917	0.918260
H 	1.969508	-0.923672	-0.924747
H 	1.201691	1.483554	-0.869931
H 	1.137638	1.388364	0.996202
