11
02/13/2019 22:15, XYZ structure generated by mol3D Class, molSimplify
C 	1.849294	0.221975	0.085516
N 	0.924377	-0.643288	-0.007173
N 	-0.276336	-0.199896	-0.553911
C 	-1.455781	-0.508984	0.220781
C 	-0.975855	0.897175	0.098091
H 	1.725118	1.272282	-0.191629
H 	2.816117	-0.111133	0.453760
H 	-1.292606	-1.000722	1.178400
H 	-2.314693	-0.854485	-0.346135
H 	-1.474206	1.602480	-0.560777
H 	-0.499176	1.330598	0.975582
