11
02/13/2019 22:15, XYZ structure generated by mol3D Class, molSimplify
C 	2.369432	0.005052	-0.018792
C 	0.907169	-0.458974	-0.014223
C 	-0.073859	0.468857	0.053715
C 	-1.499278	0.226731	-0.098251
C 	-2.602786	-0.233523	0.052530
H 	2.399068	1.114300	-0.174297
H 	2.860462	-0.193468	1.003018
H 	3.039225	-0.569162	-0.778439
H 	0.527320	-1.449080	0.016155
H 	0.240966	1.506002	0.300544
H 	-3.675234	-0.369332	-0.069060
