13
02/13/2019 22:15, XYZ structure generated by mol3D Class, molSimplify
C 	-1.720566	-0.641430	0.033147
C 	-0.401610	-0.030620	0.023531
C 	-0.311065	1.468142	0.004501
N 	0.610858	-0.806213	-0.010212
N 	1.854344	-0.268988	-0.135623
H 	-1.555409	-1.761883	-0.068484
H 	-2.392528	-0.409764	0.878743
H 	-2.298896	-0.394865	-0.894319
H 	0.667480	1.749856	-0.556461
H 	-0.314381	1.919279	1.094545
H 	-1.292235	1.858303	-0.568681
H 	2.510522	-0.940743	0.431939
H 	1.980538	0.691081	0.268771
