8
02/13/2019 22:15, XYZ structure generated by mol3D Class, molSimplify
C 	1.119392	-0.230735	0.019607
O 	0.072524	-1.149035	-0.000688
C 	-1.062203	-0.386459	-0.021617
N 	-0.888105	0.855148	0.020795
O 	0.485248	1.055662	-0.016993
H 	1.746578	-0.305928	0.894299
H 	1.675743	-0.313720	-0.906247
H 	-2.043358	-0.866419	0.027544
