14
02/13/2019 22:15, XYZ structure generated by mol3D Class, molSimplify
C 	2.322003	-0.231771	0.226352
N 	1.001878	-0.094389	-0.605145
C 	-0.014723	0.689422	0.240974
C 	-1.241024	-0.196072	0.588731
O 	-2.175403	-0.076578	-0.587281
H 	3.621484	0.976712	-0.093927
H 	2.525204	-1.714136	-0.462048
H 	1.918630	-0.338923	1.893281
H 	1.163969	0.347412	-1.621266
H 	0.508770	0.933721	1.179795
H 	-0.404909	1.598765	-0.167590
H 	-1.555754	0.301569	1.614799
H 	-0.925126	-1.300655	0.843056
H 	-2.127810	-1.491973	-0.724855
