11
02/13/2019 22:15, XYZ structure generated by mol3D Class, molSimplify
C 	1.828312	-0.183836	-0.089990
O 	0.535732	-0.685331	-0.066399
C 	-0.463220	0.205299	0.045532
C 	-1.787732	-0.574307	-0.062882
O 	-0.239078	1.382077	0.153360
H 	1.993461	0.443185	0.790009
H 	2.352337	-1.109147	0.068811
H 	2.048281	0.413637	-0.962215
H 	-2.587130	0.206255	-1.677099
H 	-1.225010	-2.421885	-0.019746
H 	-2.452842	0.114236	1.698190
