11
02/13/2019 22:15, XYZ structure generated by mol3D Class, molSimplify
C 	1.045089	-0.668348	0.063420
C 	0.852048	0.866292	0.088737
O 	-0.528839	1.053739	-0.248154
C 	-1.145055	-0.117047	0.193636
O 	-0.303987	-1.155843	-0.192416
H 	1.697266	-0.995660	-0.792282
H 	1.505940	-1.186880	0.987989
H 	1.447917	1.384616	-0.665197
H 	1.016475	1.314388	1.130083
H 	-2.174504	-0.205838	-0.242834
H 	-1.248472	-0.007328	1.277808
