10
02/11/2019 18:37, XYZ structure generated by mol3D Class, molSimplify
C 	-1.752858	0.063407	-0.229835
O 	-0.399755	-0.450395	0.230647
C 	0.606901	0.412322	0.265807
C 	1.873361	-0.118624	-0.263678
H 	-2.486243	-0.058959	0.694256
H 	-1.782503	1.145338	-0.626655
H 	-2.149734	-0.532589	-1.050736
H 	0.370807	1.553241	0.784226
H 	2.817725	0.463158	-0.136347
H 	1.957615	-1.276780	-0.614026
