9
02/11/2019 18:17, XYZ structure generated by mol3D Class, molSimplify
C 	-1.193277	-0.237728	-0.040647
C 	0.045438	0.540238	0.061435
O 	1.262778	-0.239434	-0.112386
H 	-1.986364	0.537660	-0.143370
H 	-1.267626	-0.731944	1.092852
H 	-1.342989	-0.972581	-0.805954
H 	0.188417	1.296249	-0.710210
H 	0.063074	0.978638	1.029100
H 	1.032234	-1.091981	0.360722
