18
03/25/2019 10:01, XYZ structure generated by mol3D Class, molSimplify
C 	1.566733	-1.156550	-0.386432
C 	1.135192	-0.159304	0.671169
C 	0.025286	0.718926	0.207782
C 	0.278891	1.878448	-0.331132
C 	-1.392667	0.250260	0.301180
C 	-1.603829	-1.099732	-0.314852
H 	2.071694	-0.634071	-1.166042
H 	2.266427	-1.924299	0.075932
H 	0.652905	-1.648986	-0.810792
H 	1.980932	0.534743	0.927361
H 	0.694888	-0.580840	1.585235
H 	-0.449541	2.612115	-0.733769
H 	1.304298	2.239031	-0.471128
H 	-2.020006	0.965638	-0.263622
H 	-1.720964	0.318754	1.394822
H 	-0.889209	-1.911785	0.075917
H 	-2.629875	-1.358799	-0.213804
H 	-1.343744	-1.087084	-1.424296
