12
02/13/2019 22:15, XYZ structure generated by mol3D Class, molSimplify
C 	-1.207579	-0.347274	0.074509
N 	0.015432	-1.273957	-0.006639
C 	1.232139	-0.362660	0.090695
C 	0.641288	1.071283	-0.102521
C 	-0.660622	1.099446	-0.032457
H 	-1.773211	-0.432094	1.090152
H 	-1.953290	-0.539446	-0.734250
H 	-0.052041	-1.642934	-0.975432
H 	2.004774	-0.537471	-0.730716
H 	1.534166	-0.450675	1.190909
H 	1.318210	1.891293	0.037666
H 	-1.355256	1.929757	0.075023
