13
02/13/2019 22:15, XYZ structure generated by mol3D Class, molSimplify
C 	-1.695929	-0.676431	-0.106400
N 	-0.359691	-0.008041	0.089670
C 	-0.377940	1.470671	0.049824
C 	0.842402	-0.714359	0.068815
N 	2.058983	-0.329281	-0.086385
H 	-2.476644	0.098614	-0.845207
H 	-2.150471	-0.847824	1.140550
H 	-1.448753	-1.756829	-0.732157
H 	0.540686	1.875941	0.702722
H 	-1.520864	1.695771	0.466152
H 	-0.349948	2.005640	-1.008793
H 	0.554092	-1.785116	0.255463
H 	2.087831	0.679397	-0.170115
