8
02/13/2019 22:15, XYZ structure generated by mol3D Class, molSimplify
O 	-1.825922	-0.689011	0.001065
C 	-1.330644	0.410840	-0.000967
N 	0.031846	0.651300	0.000013
C 	0.992611	-0.354494	-0.001365
O 	2.175669	-0.121190	0.000910
H 	-1.922433	1.343448	-0.000790
H 	0.376394	1.603853	0.003402
H 	0.551345	-1.362167	-0.006471
