10
02/11/2019 18:37, XYZ structure generated by mol3D Class, molSimplify
C 	1.464847	-0.447832	-0.051566
N 	0.552443	0.663916	0.004546
C 	-0.838203	0.466273	-0.019116
N 	-1.604905	-0.598679	0.080520
H 	2.422923	0.009496	1.228548
H 	0.555677	-1.628714	0.426859
H 	2.157702	-0.555057	-1.437816
H 	0.809405	1.666365	-0.729053
H 	-1.432594	1.417150	-0.034040
H 	-0.910465	-1.416381	0.205171
