11
02/13/2019 22:15, XYZ structure generated by mol3D Class, molSimplify
N 	-1.723186	0.439114	0.303295
C 	-0.964193	-0.501055	-0.232213
N 	0.363322	-0.327798	-0.607031
C 	0.941500	0.878218	-0.040235
C 	1.392598	-0.485102	0.419324
H 	-2.727810	0.228179	0.306413
H 	-1.357661	-1.454217	-0.567967
H 	0.171080	1.437183	0.576551
H 	1.519837	1.480915	-0.834097
H 	1.062013	-0.650039	1.531651
H 	2.301236	-0.888520	-0.015190
