9
02/13/2019 22:15, XYZ structure generated by mol3D Class, molSimplify
C 	-2.167884	-0.076832	-0.408651
C 	-0.919280	-0.399640	0.583587
O 	-0.007411	0.720455	0.149467
C 	1.305441	0.389865	0.037303
O 	1.844810	-0.675957	-0.316286
H 	-2.993303	-0.796085	-0.000881
H 	-2.407046	1.067594	-1.667661
H 	-0.416463	-1.377788	1.611688
H 	1.790618	1.419077	0.177303
