9
02/13/2019 22:15, XYZ structure generated by mol3D Class, molSimplify
C 	-0.682963	0.983940	0.000002
C 	-1.097254	-0.365675	-0.000114
N 	-0.067448	-1.200780	0.000014
N 	1.004873	-0.398539	0.000049
C 	0.690915	0.917485	0.000136
H 	-1.297259	1.872809	-0.000499
H 	-2.104753	-0.761933	0.000708
H 	1.922567	-0.813894	-0.000913
H 	1.453753	1.683681	-0.000459
