11
02/13/2019 22:15, XYZ structure generated by mol3D Class, molSimplify
C 	0.008177	1.219427	-0.003285
C 	1.170132	0.283763	0.011122
C 	0.727268	-0.988368	-0.006766
C 	-0.730652	-0.995824	0.005594
C 	-1.173436	0.281272	-0.006981
H 	-0.008954	1.884512	0.854218
H 	0.012640	1.896238	-0.873009
H 	2.207841	0.595701	-0.019165
H 	1.342214	-1.867659	-0.007045
H 	-1.354249	-1.891760	-0.005432
H 	-2.217225	0.578441	0.054210
