9
03/25/2019 10:02, XYZ structure generated by mol3D Class, molSimplify
N 	1.959154	-0.026540	0.039823
C 	0.598762	0.168626	-0.014930
N 	-0.203803	1.174945	0.047741
C 	-1.375070	0.550098	-0.022515
N 	-1.437743	-0.751500	-0.041372
O 	-0.030093	-1.014636	0.019641
H 	2.319908	-1.004656	0.164330
H 	2.701666	0.748441	-0.836191
H 	-2.264776	1.112090	0.164109
