14
02/13/2019 22:15, XYZ structure generated by mol3D Class, molSimplify
C 	-0.579469	1.480610	0.101318
C 	-0.464304	-0.043262	-0.302444
N 	-1.690247	-0.801943	-0.099698
C 	0.764495	-0.727900	0.235284
O 	1.980242	0.063416	0.028511
H 	-0.449510	1.611717	1.226873
H 	-1.625847	1.738932	-0.195519
H 	0.177730	2.160854	-0.545623
H 	-0.353647	-0.067225	-1.455454
H 	-2.359375	-0.339779	0.843949
H 	-1.294119	-1.857506	0.233098
H 	0.819409	-1.711299	-0.163850
H 	0.775157	-0.853453	1.314241
H 	1.790879	0.538283	-0.993990
