15
02/13/2019 22:15, XYZ structure generated by mol3D Class, molSimplify
C 	1.837171	0.253959	-0.294082
C 	0.783611	-0.541935	0.553520
C 	-0.534005	-0.187561	0.020339
C 	-0.814842	1.269111	-0.069728
C 	-1.546477	-1.032266	-0.170356
H 	2.840941	-0.132432	0.008290
H 	1.715186	1.372617	-0.174853
H 	1.724740	-0.003925	-1.416474
H 	0.978848	-1.605033	0.324071
H 	0.911433	-0.344710	1.632607
H 	-1.937235	1.608318	0.404402
H 	-0.053544	1.850300	0.717826
H 	-0.507823	1.613222	-1.195173
H 	-1.431818	-2.086171	-0.170500
H 	-2.621140	-0.713390	-0.246081
