14
02/13/2019 22:15, XYZ structure generated by mol3D Class, molSimplify
N 	-1.497600	-0.813350	0.181693
C 	-1.184422	0.363199	-0.575869
C 	-0.024879	1.095319	0.062199
C 	1.203993	0.264799	0.562028
O 	1.406968	-0.933182	-0.251031
H 	-1.335691	-0.590055	1.217979
H 	-0.662498	-1.530084	-0.032849
H 	-0.812633	0.207548	-1.652165
H 	-1.988426	1.221484	-0.481692
H 	-0.390266	1.757271	0.934751
H 	0.215235	1.880942	-0.662532
H 	2.087983	0.927874	0.596155
H 	1.080895	-0.055700	1.615417
H 	1.203785	-0.632724	-1.293895
