11
02/13/2019 22:15, XYZ structure generated by mol3D Class, molSimplify
C 	-0.007084	1.241544	-0.014877
C 	1.140670	0.278978	0.074327
C 	0.782917	-1.033741	-0.041405
C 	-0.740160	-1.000792	0.000447
C 	-1.157687	0.307368	0.070047
H 	-0.129426	2.216834	0.623981
H 	-0.080445	1.541617	-1.218940
H 	2.221136	0.496636	0.055510
H 	1.539037	-1.807384	-0.210607
H 	-1.597094	-1.715586	-0.287353
H 	-2.175350	0.545670	-0.016796
