11
02/13/2019 22:15, XYZ structure generated by mol3D Class, molSimplify
N 	-1.722068	0.353764	0.365887
C 	-1.042119	-0.507555	-0.315470
N 	0.308098	-0.276847	-0.571356
C 	1.087627	0.908442	-0.099952
C 	1.352450	-0.458674	0.475043
H 	-2.732091	0.018592	0.220343
H 	-1.479383	-1.482852	-0.860898
H 	0.627415	1.705821	0.520432
H 	1.661652	1.393664	-0.925538
H 	1.090934	-0.550936	1.552857
H 	2.217908	-1.049985	0.163729
