10
02/13/2019 22:15, XYZ structure generated by mol3D Class, molSimplify
N 	-2.253672	0.083739	-0.222130
C 	-1.196216	-0.022658	0.156531
C 	0.221096	-0.089143	0.525063
C 	1.213646	0.734390	-0.252673
C 	1.325108	-0.714768	-0.173079
H 	0.373393	-0.082773	1.582339
H 	1.845199	1.346676	0.342215
H 	0.876711	1.075145	-1.164864
H 	1.300197	-1.340021	-1.175778
H 	2.177396	-1.064964	0.372842
