8
02/13/2019 22:15, XYZ structure generated by mol3D Class, molSimplify
C 	-1.038681	0.434288	-0.009444
C 	0.101060	1.154972	0.003678
N 	1.044885	0.188860	-0.027800
N 	0.491242	-1.058162	0.016684
N 	-0.786529	-0.939512	-0.008515
H 	-2.076686	0.720006	0.144226
H 	0.467692	2.208325	0.019101
H 	2.049604	0.102988	0.178093
