12
02/13/2019 22:15, XYZ structure generated by mol3D Class, molSimplify
N 	1.997113	-0.351018	-0.032005
C 	0.886520	0.589412	-0.147460
C 	-0.363580	0.015309	0.469728
C 	-1.695025	0.418032	0.015721
O 	-1.152020	-0.847894	-0.335524
H 	2.297378	-0.421897	0.937664
H 	2.795108	-0.006192	-0.555170
H 	0.682216	0.755936	-1.212043
H 	1.081076	1.578037	0.309372
H 	-0.255357	-0.321642	1.505710
H 	-2.538755	0.389315	0.706658
H 	-1.788483	1.129322	-0.808840
