14
02/13/2019 22:15, XYZ structure generated by mol3D Class, molSimplify
C 	1.626833	-0.764601	-0.170056
C 	0.727862	0.404519	0.396837
C 	-0.136051	1.202397	-0.466259
C 	-0.820160	0.223307	0.512982
N 	-1.351165	-0.839559	-0.208919
H 	1.678912	-1.502993	0.653419
H 	2.684379	-0.345852	-0.382016
H 	1.137793	-1.252999	-0.991538
H 	1.148853	0.868657	1.350980
H 	-0.295693	2.235996	-0.371800
H 	-0.133965	0.932028	-1.489863
H 	-1.306007	0.718754	1.337232
H 	-1.744007	-1.629010	0.336077
H 	-2.205914	-0.534611	-0.687633
