16
02/13/2019 22:15, XYZ structure generated by mol3D Class, molSimplify
C 	0.456617	1.422383	0.013743
C 	0.480150	-0.061680	-0.326440
C 	1.785235	-0.735422	0.089414
C 	-0.767418	-0.755158	0.137436
N 	-1.939952	0.170951	-0.050674
H 	0.411918	1.678080	1.087494
H 	1.489466	1.703700	-0.329099
H 	-0.263721	1.923524	-0.568393
H 	0.396310	-0.174379	-1.414933
H 	2.004245	-0.768030	1.153556
H 	1.584450	-1.854711	0.046458
H 	2.656189	-0.321618	-0.415015
H 	-0.498793	-1.120703	1.162234
H 	-0.772778	-1.633108	-0.572553
H 	-2.784782	-0.852955	-1.081923
H 	-2.481231	0.300577	1.480327
