10
02/13/2019 22:15, XYZ structure generated by mol3D Class, molSimplify
C 	2.304208	-0.070455	0.084730
C 	0.832339	-0.396781	-0.069432
C 	-0.108364	0.608187	-0.081187
C 	-1.503244	0.204003	-0.112569
N 	-2.574044	-0.344301	0.136456
H 	2.565907	0.350001	1.084871
H 	2.664275	0.673521	-0.642802
H 	2.965288	-0.909119	0.033618
H 	0.506319	-1.440002	-0.196104
H 	0.215927	1.623769	-0.050677
