14
02/13/2019 22:15, XYZ structure generated by mol3D Class, molSimplify
C 	1.641726	-0.890872	0.028505
N 	1.272739	0.487179	-0.251935
C 	-0.012097	0.857645	0.327825
C 	-1.146287	0.212951	-0.420735
C 	-2.106457	-0.513419	0.141087
H 	1.661708	-1.134178	1.107383
H 	0.925211	-1.564945	-0.450933
H 	2.629184	-1.096544	-0.393342
H 	1.990089	1.105803	0.111976
H 	-0.093950	0.597902	1.402609
H 	-0.107941	1.948630	0.251674
H 	-1.139380	0.377678	-1.498878
H 	-2.917456	-0.943852	-0.440591
H 	-2.121531	-0.697797	1.215316
