8
02/13/2019 22:15, XYZ structure generated by mol3D Class, molSimplify
N 	1.041633	1.091495	0.147086
C 	0.415806	-0.098184	-0.018439
N 	1.012768	-1.271284	0.012056
C 	-1.031593	0.013519	-0.137793
N 	-2.183825	-0.039619	0.074633
H 	0.585332	2.012820	-0.790070
H 	2.091692	1.029502	-0.580084
H 	2.035201	-0.951559	-0.017781
