13
03/25/2019 10:02, XYZ structure generated by mol3D Class, molSimplify
C 	2.927856	-0.618744	-0.030637
C 	1.705542	0.435250	-0.126162
C 	0.449296	-0.211938	0.230418
C 	-0.773169	0.859751	0.040139
C 	-2.017418	0.048549	0.002046
N 	-3.074230	-0.554856	-0.124546
H 	3.931690	-0.180234	-0.063642
H 	3.032852	-1.983956	0.255628
H 	1.692709	1.727198	-0.437477
H 	0.411701	-0.777186	1.285252
H 	0.393334	-1.029099	-0.574082
H 	-0.942627	1.670718	1.066345
H 	-0.786339	1.482509	-1.063932
