14
03/25/2019 10:01, XYZ structure generated by mol3D Class, molSimplify
C 	0.287255	1.809771	0.087900
C 	-0.013204	0.348252	-0.311402
C 	-1.179959	-0.284425	0.446049
C 	-2.192105	-0.930441	-0.186149
C 	1.190178	-0.442305	-0.046889
C 	2.308889	-0.972042	-0.017614
H 	0.971153	2.328769	-0.629859
H 	0.793898	1.813614	1.106578
H 	-0.653958	2.424755	0.316890
H 	-0.196506	0.359208	-1.370492
H 	-1.032340	-0.061550	1.543161
H 	-2.969014	-1.532879	0.321651
H 	-2.227473	-1.045998	-1.265191
H 	3.250724	-1.411399	0.132190
