8
02/11/2019 18:37, XYZ structure generated by mol3D Class, molSimplify
N 	1.138729	-0.635371	-0.001617
C 	0.016582	0.156498	0.033743
N 	-1.106359	-0.588880	-0.066677
O 	-0.032432	1.378804	0.005837
H 	1.092276	-1.673786	0.274960
H 	2.000465	-0.073043	-0.289488
H 	-2.060119	-0.086797	0.275116
H 	-1.165099	-1.589200	0.193885
