12
02/13/2019 22:15, XYZ structure generated by mol3D Class, molSimplify
C 	-1.958819	0.151576	-0.001122
N 	-0.617559	-0.634354	0.029832
C 	0.669154	-0.210111	0.046645
C 	0.717245	1.325198	-0.068233
O 	1.600345	-0.950895	0.005611
H 	-1.687822	1.182588	0.799830
H 	-2.761987	-0.588488	0.631221
H 	-2.282095	0.560667	-1.199696
H 	-0.720181	-1.616660	-0.132987
H 	0.259405	1.598082	-1.045114
H 	0.158465	1.763264	0.807215
H 	1.819831	1.613893	-0.093592
