8
02/11/2019 18:07, XYZ structure generated by mol3D Class, molSimplify
C 	0.749687	0.037689	0.007593
C 	-0.777247	-0.013033	0.027451
H 	0.999572	0.960786	-0.502619
H 	1.364522	-0.472529	1.018324
H 	1.415960	-0.724238	-0.653812
H 	-1.140034	0.764120	0.690702
H 	-1.266917	-0.835217	0.057501
H 	-1.033025	0.026802	-0.997306
