12
02/13/2019 22:15, XYZ structure generated by mol3D Class, molSimplify
C 	2.353022	0.230841	0.102197
N 	1.124679	-0.495304	-0.047397
C 	0.073481	0.169969	-0.171511
N 	-1.167612	-0.467790	-0.094872
N 	-2.231657	0.400919	0.110119
H 	3.200207	-0.351054	-0.380425
H 	2.665388	0.333109	1.219035
H 	2.308015	1.252132	-0.347248
H 	-0.059962	1.254588	-0.299086
H 	-1.145114	-1.464424	0.190542
H 	-2.950502	0.257526	-0.597360
H 	-2.728484	0.296790	1.042698
