14
03/25/2019 10:01, XYZ structure generated by mol3D Class, molSimplify
C 	1.296524	1.236568	0.594437
C 	0.657630	0.241954	-0.362649
N 	1.454014	-0.914516	-0.461523
C 	-0.765166	-0.186950	0.024457
N 	-1.785864	0.581108	-0.475944
O 	-0.980532	-1.174007	0.752153
H 	1.462364	0.784744	1.625682
H 	0.706829	2.176632	0.795560
H 	2.254792	1.588273	0.186042
H 	0.682931	0.783362	-1.309950
H 	1.310237	-1.518330	0.354820
H 	1.142498	-1.477919	-1.229501
H 	-2.851642	0.235042	-0.498032
H 	-1.617525	1.327706	-1.185722
