15
03/25/2019 10:02, XYZ structure generated by mol3D Class, molSimplify
N 	-2.056805	-0.104406	-0.378072
C 	-0.825226	-0.014039	0.449285
C 	0.156006	-1.291246	0.176033
C 	1.608110	-0.580966	-0.212683
C 	1.341802	0.930727	-0.154790
C 	0.062986	1.225258	0.186070
H 	-2.702821	0.512624	0.082320
H 	-1.927817	0.384348	-1.312355
H 	-1.159378	-0.161616	1.482366
H 	0.216436	-1.970081	1.116616
H 	-0.327421	-1.930156	-0.631003
H 	2.168710	-0.811658	-1.137352
H 	2.197282	-0.750475	0.673078
H 	2.114088	1.590863	-0.457519
H 	-0.291987	2.307734	0.389271
