9
02/13/2019 22:15, XYZ structure generated by mol3D Class, molSimplify
N 	-2.279445	-0.023457	0.096141
C 	-0.957895	-0.320544	-0.151595
C 	0.115220	0.474116	-0.120203
C 	1.479714	0.025818	0.025401
N 	2.622806	-0.178160	0.081035
H 	-2.903850	-0.824473	0.253913
H 	-2.607819	0.954928	0.488939
H 	-0.805875	-1.377192	-0.222301
H 	0.103669	1.573748	-0.048485
