13
02/13/2019 22:15, XYZ structure generated by mol3D Class, molSimplify
O 	-2.322174	-0.125973	-0.075120
C 	-1.000862	-0.327067	0.374622
C 	-0.036035	0.694132	-0.224912
C 	1.386141	0.518962	0.227251
O 	1.843599	-0.723666	-0.268435
H 	-2.338120	-0.318554	-1.025371
H 	-0.621431	-1.329026	0.154727
H 	-1.050539	-0.219221	1.468502
H 	-0.379693	1.703614	0.024373
H 	-0.044117	0.600992	-1.319656
H 	1.446845	0.555870	1.326975
H 	1.981956	1.348476	-0.160778
H 	2.743738	-0.873148	0.038063
