11
02/13/2019 22:15, XYZ structure generated by mol3D Class, molSimplify
C 	-2.349165	-0.042169	-0.138384
C 	-1.143467	0.055523	0.132093
C 	0.271515	0.002829	0.540285
C 	1.342189	-0.740448	-0.231834
C 	1.325212	0.725522	-0.218920
H 	-3.339870	0.100955	-0.478773
H 	0.395290	-0.150938	1.659707
H 	2.105551	-1.213115	0.387469
H 	1.111664	-1.209310	-1.165177
H 	1.012717	1.223661	-1.136734
H 	2.197924	1.233806	0.232754
