11
02/13/2019 22:15, XYZ structure generated by mol3D Class, molSimplify
N 	-1.283796	-0.843763	-0.247447
C 	-1.102295	0.520908	0.516192
C 	0.279601	1.134178	0.051731
N 	1.300389	0.438683	-0.336074
O 	1.102278	-0.961517	-0.052913
H 	-1.072293	-0.789909	-1.605489
H 	-0.401356	-1.601264	0.209807
H 	-1.910647	1.377324	0.214214
H 	-1.115516	0.420579	1.639663
H 	0.284140	2.240602	-0.133197
H 	0.781471	-0.914782	1.107021
