10
03/25/2019 10:01, XYZ structure generated by mol3D Class, molSimplify
C 	-2.081234	-1.137283	0.017361
C 	-1.424954	-0.116904	-0.017309
C 	-0.632020	1.083809	0.053367
C 	0.729978	1.213282	-0.053540
C 	1.523936	0.075889	-0.033554
C 	1.899794	-1.153195	0.030616
H 	-2.651116	-2.026325	-0.222229
H 	-1.157587	2.072027	0.122514
H 	1.198440	2.194520	0.035028
H 	2.425694	-2.086536	0.101116
