18
03/25/2019 10:01, XYZ structure generated by mol3D Class, molSimplify
C 	-1.441065	1.337101	0.047870
C 	-0.640841	-0.024504	-0.042370
C 	-1.455026	-1.315711	-0.015558
C 	0.691314	0.000659	-0.079563
C 	1.408750	1.315919	-0.041215
C 	1.446696	-1.315120	0.093597
H 	-0.815710	2.253443	-0.516201
H 	-2.516861	1.105737	-0.460977
H 	-1.592457	1.630710	1.246491
H 	-2.530746	-1.059928	-0.011206
H 	-1.130249	-1.962688	0.779665
H 	-1.260392	-1.837150	-0.994486
H 	1.469182	1.758279	1.073759
H 	2.430345	1.080048	-0.391628
H 	0.874259	2.090444	-0.705417
H 	2.525420	-1.198810	-0.199081
H 	1.425273	-1.666925	1.170390
H 	1.004901	-2.173457	-0.547906
