11
02/13/2019 22:15, XYZ structure generated by mol3D Class, molSimplify
C 	2.429662	-0.113690	0.215607
C 	1.189535	0.407273	0.046608
C 	-0.036515	-0.444658	-0.329953
C 	-1.298788	0.314809	-0.329234
O 	-2.433518	-0.131630	0.408719
H 	3.329546	0.459609	0.591516
H 	2.602329	-1.176239	-0.147970
H 	1.105052	1.505414	0.140176
H 	0.058112	-0.846734	-1.461127
H 	-0.086060	-1.327778	0.344105
H 	-1.144200	1.459893	-1.226700
