10
02/13/2019 22:15, XYZ structure generated by mol3D Class, molSimplify
C 	-1.429919	0.775083	-0.003935
C 	0.046033	0.383217	-0.106010
C 	0.991588	1.403143	0.115668
C 	0.279524	-1.022749	0.005063
N 	0.473218	-2.183843	-0.043927
H 	-1.648394	1.174540	1.476801
H 	-2.215141	-0.546573	-0.245223
H 	-1.579752	1.916272	-0.952499
H 	2.025440	1.154575	0.072943
H 	0.800575	2.450963	0.129890
