9
02/13/2019 22:15, XYZ structure generated by mol3D Class, molSimplify
O 	1.844007	-0.036934	-0.190509
C 	0.625829	-0.703199	0.203455
C 	-0.505733	0.169308	0.058330
O 	-1.706143	-0.510554	-0.169640
O 	-0.407902	1.355834	0.120410
H 	1.710275	0.881686	-0.177701
H 	0.619215	-1.703496	-0.350819
H 	0.812591	-0.937126	1.377896
H 	-1.520054	-1.444836	-0.162040
