13
02/13/2019 22:15, XYZ structure generated by mol3D Class, molSimplify
C 	1.799697	-0.006124	0.249198
C 	0.469619	0.030590	-0.469495
C 	-0.570469	1.071238	-0.017506
C 	-1.460677	-0.152759	0.232686
O 	-0.391040	-1.057719	-0.076107
H 	1.640941	0.009640	1.334177
H 	2.419592	0.854891	-0.032417
H 	2.341298	-0.922586	-0.003567
H 	0.626152	0.018894	-1.559180
H 	-0.280547	1.615541	0.885045
H 	-0.916148	1.775966	-0.776947
H 	-1.833449	-0.292712	1.253452
H 	-2.300998	-0.260009	-0.467550
