10
02/13/2019 22:15, XYZ structure generated by mol3D Class, molSimplify
N 	2.186667	-0.184923	0.085260
N 	0.812840	-0.375094	0.053512
C 	0.078515	0.670413	-0.008994
N 	-1.287005	0.574425	0.155958
O 	-1.834762	-0.687177	-0.156520
H 	2.577018	-0.972316	-0.523227
H 	2.507053	0.717755	-0.325913
H 	0.427559	1.680410	-0.079815
H 	-1.734007	1.207908	-0.492315
H 	-1.393365	-1.247680	0.562955
