14
03/25/2019 10:02, XYZ structure generated by mol3D Class, molSimplify
O 	-2.646614	-0.500700	-0.100228
C 	-1.369623	-0.310244	0.498792
C 	-0.462308	0.606459	-0.413788
C 	0.948750	1.070848	0.217000
C 	1.997890	0.067662	0.049156
C 	2.585536	-0.961428	-0.175846
H 	-2.520285	-1.087889	-0.957052
H 	-1.025910	-1.374000	0.574691
H 	-1.589888	-0.009558	1.518308
H 	-1.003034	1.600183	-0.408205
H 	-0.380296	0.274636	-1.430305
H 	1.316192	1.935064	-0.262352
H 	0.669003	1.279600	1.225344
H 	3.138059	-1.762261	-0.549156
