8
02/13/2019 22:15, XYZ structure generated by mol3D Class, molSimplify
C 	-0.670396	-0.889456	-0.003400
N 	0.688791	-1.006943	0.005652
C 	1.064805	0.258897	-0.002307
N 	0.004437	1.070692	0.001251
N 	-1.132528	0.341122	0.003123
H 	-1.334793	-1.751329	-0.034166
H 	2.084281	0.632926	-0.023110
H 	-0.049727	2.071517	-0.014072
