9
02/11/2019 18:37, XYZ structure generated by mol3D Class, molSimplify
N 	-1.695632	0.006270	0.291012
N 	-0.459236	0.395902	-0.413470
C 	0.662446	-0.417548	-0.169264
N 	1.834632	-0.005619	0.220714
H 	-1.268702	-1.189647	0.725382
H 	-2.711204	0.173004	-0.640305
H 	-0.160262	1.233268	0.130704
H 	0.557034	-1.511747	-0.325833
H 	1.901654	1.009675	0.526025
