12
02/13/2019 22:15, XYZ structure generated by mol3D Class, molSimplify
C 	2.613959	0.225026	0.044792
C 	1.184602	-0.066521	-0.023431
C 	0.010031	-0.361962	-0.081089
C 	-1.436960	-0.622757	-0.051823
N 	-2.258243	0.604005	0.081009
H 	3.040114	0.207789	-1.193694
H 	2.788426	1.321566	0.633638
H 	3.164441	-0.719157	0.757509
H 	-1.684782	-1.257486	0.817622
H 	-1.786033	-1.167073	-0.976131
H 	-1.798860	1.102898	0.889952
H 	-2.107747	1.198920	-0.726005
