14
02/13/2019 22:15, XYZ structure generated by mol3D Class, molSimplify
C 	1.525159	-0.771272	-0.135172
C 	0.743402	0.382065	0.393115
C 	-0.110035	1.283543	-0.420003
C 	-0.806719	0.276900	0.438247
N 	-1.324771	-0.917092	-0.217647
H 	1.897404	-1.361703	0.724408
H 	2.383885	-0.369765	-0.730447
H 	0.961626	-1.451698	-0.801105
H 	1.152863	0.876240	1.298736
H 	-0.148643	2.307904	-0.258458
H 	-0.125019	1.013468	-1.473374
H 	-1.242938	0.664392	1.374205
H 	-1.521213	-1.651541	0.458495
H 	-2.204577	-0.717575	-0.748291
