11
02/13/2019 22:15, XYZ structure generated by mol3D Class, molSimplify
C 	0.001009	1.194421	-0.106340
C 	-1.242782	0.222073	0.071299
C 	-0.561541	-1.095446	-0.071428
C 	0.741754	-0.916636	-0.014902
O 	1.195388	0.350497	0.096029
H 	0.050326	1.952518	0.711010
H 	0.024049	1.716011	-1.129923
H 	-2.053869	0.463213	-0.655819
H 	-1.619208	0.371703	1.152824
H 	-1.116025	-2.028440	-0.187718
H 	1.492913	-1.680547	0.030722
