10
02/13/2019 22:15, XYZ structure generated by mol3D Class, molSimplify
N 	0.128834	0.090899	2.404959
C 	-0.089024	-0.379508	1.230076
N 	-0.155919	0.340367	0.003240
C 	0.041324	-0.345325	-1.213041
N 	0.074183	0.091272	-2.433539
H 	0.115405	1.146148	2.439051
H 	-0.347041	-1.439271	1.133821
H 	0.073108	1.360471	0.043280
H 	0.305174	-1.442655	-0.976569
H 	-0.233090	1.079206	-2.490345
