15
03/25/2019 10:01, XYZ structure generated by mol3D Class, molSimplify
C 	-1.892791	-0.905330	-0.019601
C 	-0.812318	0.140388	-0.080054
C 	-1.023798	1.430736	0.172313
C 	0.547950	-0.382202	-0.412650
C 	1.587510	-0.562647	0.636782
N 	1.675231	0.534892	-0.322714
H 	-2.861513	-0.467928	0.240682
H 	-2.000684	-1.420834	-0.984141
H 	-1.653085	-1.675679	0.725058
H 	-2.010480	1.797821	0.440143
H 	-0.204836	2.142764	0.120004
H 	0.564081	-1.122177	-1.216887
H 	2.280137	-1.397055	0.548455
H 	1.360619	-0.253102	1.654519
H 	2.358174	0.323800	-1.044129
