13
03/25/2019 10:01, XYZ structure generated by mol3D Class, molSimplify
N 	1.918752	-0.707460	-0.154172
C 	0.834750	0.077635	-0.051207
N 	0.778616	1.311238	0.225730
C 	-0.517583	-0.587349	-0.126629
C 	-1.675499	-0.178967	0.697603
N 	-1.622743	0.182725	-0.746536
H 	2.746069	-0.519496	0.351474
H 	1.780359	-1.740243	-0.233668
H 	1.695633	1.752841	0.145858
H 	-0.327370	-1.655611	-0.531986
H 	-2.444385	-0.977297	1.020531
H 	-1.540411	0.638981	1.442856
H 	-1.362122	1.154097	-0.763496
