12
02/13/2019 22:15, XYZ structure generated by mol3D Class, molSimplify
N 	1.956400	-0.023402	-0.151835
C 	0.678069	-0.780657	0.215755
C 	-0.454125	0.104760	0.064656
N 	-1.663886	-0.580892	-0.202686
N 	-0.414332	1.391592	0.131992
H 	1.855291	0.984753	0.332085
H 	1.749544	0.265732	-1.228265
H 	0.495426	-1.717214	-0.425481
H 	0.639497	-0.989334	1.361117
H 	-2.474674	-0.044686	0.125881
H 	-1.745964	-1.754821	-0.612807
H 	-1.262927	1.813661	-0.157498
