13
02/13/2019 22:15, XYZ structure generated by mol3D Class, molSimplify
C 	-1.046535	1.282193	0.144815
C 	-0.431209	-0.001430	-0.403635
C 	-1.019922	-1.289786	0.160012
C 	1.041750	0.046244	-0.153428
C 	2.219559	-0.027090	0.146698
H 	-0.839705	1.414777	1.200471
H 	-2.122569	1.254852	0.021681
H 	-0.619376	2.171103	-0.365264
H 	-0.581500	0.026996	-1.484230
H 	-0.621052	-2.148666	-0.377880
H 	-0.933608	-1.429879	1.259381
H 	-2.102273	-1.302716	-0.030148
H 	3.250445	-0.107077	0.414788
