10
02/13/2019 22:15, XYZ structure generated by mol3D Class, molSimplify
C 	-1.137964	-1.058382	-0.142204
C 	-0.361770	0.134198	0.371583
O 	-1.022413	1.204454	-0.203264
C 	1.094669	-0.028355	0.064547
N 	2.249607	-0.280506	-0.139197
H 	-0.783250	-1.213857	-1.232390
H 	-0.850112	-1.937916	0.440189
H 	-2.290538	-0.995466	-0.013389
H 	-0.432325	0.182764	1.474957
H 	-0.874904	2.116333	0.183025
