13
02/13/2019 22:15, XYZ structure generated by mol3D Class, molSimplify
C 	1.975943	-0.601522	0.047365
O 	1.346889	0.674323	-0.015977
C 	-0.020543	0.674445	-0.035184
C 	-0.893264	-0.374503	-0.109850
C 	-2.392713	-0.147576	0.073833
H 	1.843106	-1.186995	-0.873650
H 	1.546885	-1.184230	0.902755
H 	3.024968	-0.354756	0.277263
H 	-0.351295	1.736012	0.026185
H 	-0.532420	-1.384975	-0.107589
H 	-2.788560	0.551649	-0.686256
H 	-2.906179	-1.090221	-0.080762
H 	-2.592826	0.310181	1.079430
