12
02/11/2019 18:37, XYZ structure generated by mol3D Class, molSimplify
C 	1.674031	0.444677	-0.170079
C 	0.556189	-0.545922	0.303666
O 	-0.629403	-0.414689	-0.455710
C 	-1.619049	0.305021	0.184818
H 	2.666323	0.401018	0.505280
H 	2.030964	0.282948	-1.255467
H 	1.213859	1.488298	0.013172
H 	0.138805	-0.365933	1.431734
H 	0.849761	-1.598394	0.238173
H 	-1.180442	1.346778	0.247220
H 	-2.574928	0.375524	-0.437802
H 	-1.969196	-0.058062	1.240875
