11
02/13/2019 22:15, XYZ structure generated by mol3D Class, molSimplify
C 	-2.283587	0.277122	0.161314
C 	-1.156141	-0.401067	-0.094471
O 	-0.032327	0.285296	-0.185107
C 	1.149819	-0.369947	0.076660
C 	2.342023	0.262380	0.067051
H 	-3.233171	-0.300703	-0.051098
H 	-2.366663	1.353716	0.403795
H 	-1.104252	-1.467332	-0.297478
H 	0.976204	-1.464985	0.275350
H 	2.317167	1.384068	-0.166801
H 	3.303261	-0.295023	0.266974
