12
02/13/2019 22:15, XYZ structure generated by mol3D Class, molSimplify
C 	1.752731	-0.608320	-0.009137
C 	0.368190	-0.027454	0.013865
C 	0.239085	1.460191	-0.005004
N 	-0.608397	-0.863971	0.003513
O 	-1.869430	-0.356674	0.004767
H 	2.312161	-0.225061	-0.857802
H 	2.289847	-0.299340	0.886724
H 	1.693012	-1.697955	-0.069779
H 	-0.371900	1.821869	0.824373
H 	-0.256213	1.801895	-0.928925
H 	1.220718	1.956958	0.083761
H 	-1.842713	0.610894	-0.059535
