13
02/13/2019 22:15, XYZ structure generated by mol3D Class, molSimplify
C 	-1.728286	-0.782381	0.030949
C 	-1.346580	0.660428	0.120907
C 	0.145096	0.768104	-0.330853
C 	1.126345	-0.214707	0.361294
O 	2.292042	-0.393475	-0.189633
H 	-1.922568	-1.116176	-1.025290
H 	-2.759729	-0.987585	0.429782
H 	-0.920418	-1.523182	0.441348
H 	-2.096729	1.146664	-0.625673
H 	-1.573512	1.129868	1.115751
H 	0.507712	1.728472	-0.041005
H 	0.100177	0.595858	-1.363111
H 	0.579184	-0.822140	1.482098
