9
03/25/2019 10:02, XYZ structure generated by mol3D Class, molSimplify
N 	2.040154	0.011157	-0.086358
C 	0.656288	0.064918	-0.011243
C 	-0.230932	1.088915	-0.012468
O 	-1.462869	0.547110	0.010207
N 	-1.319904	-0.812595	0.010658
N 	-0.089464	-1.093687	0.004047
H 	2.379725	-0.915021	0.130751
H 	2.519782	0.718461	0.458420
H 	-0.168133	2.166664	-0.036868
