12
02/11/2019 18:37, XYZ structure generated by mol3D Class, molSimplify
C 	1.851746	-0.230068	-0.253165
C 	0.570437	0.479704	0.220794
C 	-0.773361	-0.285603	0.295352
C 	-1.955341	0.021213	-0.226412
H 	1.777670	-0.327366	-1.387501
H 	1.806294	-1.210946	0.294100
H 	2.831756	0.303002	0.038396
H 	0.779946	0.801896	1.277033
H 	0.248534	1.398505	-0.380804
H 	-0.717197	-1.158529	0.892185
H 	-2.103162	0.978284	-0.673116
H 	-2.820095	-0.626839	-0.050363
