17
03/25/2019 10:01, XYZ structure generated by mol3D Class, molSimplify
C 	-0.833685	1.376463	0.137494
C 	-0.375326	-0.078946	0.027600
C 	-1.577686	-1.006832	-0.117553
C 	0.742859	-0.344107	1.038621
C 	1.668548	0.096997	-0.097773
N 	0.588046	-0.238547	-1.021104
H 	-1.492772	1.551704	1.011840
H 	-1.270406	1.676711	-0.807573
H 	0.008327	2.076530	0.220167
H 	-2.237639	-0.933066	0.752858
H 	-2.048746	-0.774757	-1.091893
H 	-1.231475	-2.026698	-0.245850
H 	0.670403	0.353896	1.878738
H 	0.767057	-1.377233	1.328119
H 	1.921540	1.213582	-0.071677
H 	2.609865	-0.502263	-0.070585
H 	0.472178	0.347264	-1.835304
