15
02/13/2019 22:15, XYZ structure generated by mol3D Class, molSimplify
C 	1.712479	-0.219108	-0.503480
C 	0.880760	0.046561	0.744771
C 	-0.617051	0.122370	0.446537
C 	-1.143066	-1.136748	-0.198022
O 	-0.928963	1.211658	-0.435138
H 	2.783657	-0.213632	-0.257187
H 	1.552330	0.572211	-1.289400
H 	1.532117	-1.224962	-0.921897
H 	1.204209	0.981441	1.180898
H 	1.088004	-0.708470	1.522129
H 	-1.149125	0.314053	1.392414
H 	-2.218714	-1.131319	-0.280012
H 	-0.729149	-1.211431	-1.219536
H 	-0.841591	-2.031991	0.390506
H 	-0.758751	2.066523	0.022727
