9
02/13/2019 22:15, XYZ structure generated by mol3D Class, molSimplify
N 	-2.231489	-0.046876	0.000568
C 	-0.909058	-0.346482	0.000058
C 	0.104568	0.545115	-0.000630
C 	1.457938	0.100032	-0.000596
N 	2.562362	-0.258302	0.000634
H 	-2.927515	-0.769916	-0.004085
H 	-2.547461	0.908895	0.002391
H 	-0.687311	-1.410604	-0.001381
H 	-0.073436	1.617372	0.000271
