10
03/25/2019 10:02, XYZ structure generated by mol3D Class, molSimplify
O 	-2.041297	-0.006340	-0.002160
C 	-0.853108	0.002874	0.003706
O 	-0.077031	1.114892	0.019831
C 	1.305672	0.768826	-0.019387
C 	1.302179	-0.767954	0.020744
O 	-0.082386	-1.110107	-0.020190
H 	1.738566	1.165979	-0.943066
H 	1.810758	1.221993	0.831017
H 	1.791546	-1.228948	-0.841241
H 	1.739386	-1.178952	0.932971
