18
03/25/2019 10:01, XYZ structure generated by mol3D Class, molSimplify
C 	-2.687518	0.722356	0.168568
C 	-1.923315	-0.509215	-0.348740
C 	-0.640959	-0.629052	0.345540
C 	0.502662	-0.216857	-0.312739
C 	1.811816	-0.358419	0.387519
C 	2.938173	0.704459	-0.236106
H 	-2.277684	1.614871	-0.276829
H 	-3.831054	0.773725	-0.096544
H 	-2.692885	0.744780	1.314126
H 	-2.576074	-1.414137	-0.192730
H 	-1.703024	-0.431962	-1.456383
H 	-0.669941	-0.897150	1.390085
H 	0.564968	0.078810	-1.343441
H 	1.516412	-0.062724	1.404659
H 	2.150175	-1.578054	0.350643
H 	3.880445	0.590087	0.243554
H 	2.455482	1.681658	-0.053832
H 	3.172961	0.456097	-1.331441
