15
02/13/2019 22:15, XYZ structure generated by mol3D Class, molSimplify
C 	2.019651	0.437644	-0.089653
C 	0.875999	-0.676996	-0.081023
C 	-0.424676	-0.260754	0.516894
C 	-1.098876	0.909353	-0.150482
C 	-1.696353	-0.462115	-0.145138
H 	2.831695	-0.046219	-0.641979
H 	2.402265	0.360161	0.967620
H 	1.713723	1.419575	-0.288993
H 	0.665758	-1.054104	-1.147339
H 	1.368598	-1.536863	0.360069
H 	-0.550815	-0.343664	1.653110
H 	-0.555947	1.345512	-1.100250
H 	-1.473487	1.704616	0.382397
H 	-2.508833	-0.461386	0.652889
H 	-1.869713	-1.084081	-1.094156
