11
02/11/2019 18:17, XYZ structure generated by mol3D Class, molSimplify
C 	0.000014	1.268416	-0.260269
C 	-0.000327	0.000150	0.589645
C 	0.000277	-1.268678	-0.260783
H 	-0.886530	1.307450	-0.904399
H 	0.004436	2.171719	0.359208
H 	0.883374	1.304847	-0.909122
H 	0.876725	0.000829	1.248829
H 	-0.879073	0.000245	1.247389
H 	0.000258	-2.169745	0.360813
H 	0.885558	-1.306363	-0.907086
H 	-0.884319	-1.307646	-0.907336
