14
03/25/2019 10:01, XYZ structure generated by mol3D Class, molSimplify
C 	-1.807123	-0.756021	-0.659702
C 	-1.022443	-0.353553	0.778198
C 	0.108832	0.629779	0.491014
O 	-0.312475	1.337856	-0.679583
C 	1.333491	-0.155154	0.152159
C 	2.436093	-0.757597	0.122317
H 	-2.089823	-2.263156	-0.094325
H 	-3.162849	0.363662	-0.882158
H 	-0.636398	-0.634431	-1.970268
H 	-0.337487	-1.320470	1.318825
H 	-1.769475	0.147761	1.663831
H 	0.383758	1.114693	1.406526
H 	0.516118	1.725173	-1.233773
H 	3.326980	-1.374056	-0.207256
