12
02/13/2019 22:15, XYZ structure generated by mol3D Class, molSimplify
O 	1.570342	0.039120	-0.420514
C 	0.611775	-0.042611	0.603745
C 	-0.572474	-1.030115	0.291217
N 	-1.022917	-0.008444	-0.712882
C 	-0.511903	1.028027	0.278104
H 	1.089726	0.099764	-1.292680
H 	1.111564	-0.024517	1.553066
H 	-0.398519	-2.057939	-0.184426
H 	-1.139605	-1.062900	1.255426
H 	-2.035061	-0.080366	-0.815875
H 	-0.170641	2.008156	-0.239036
H 	-1.201295	1.146481	1.140950
