8
02/11/2019 18:37, XYZ structure generated by mol3D Class, molSimplify
N 	1.488811	-0.405811	-0.202762
N 	0.523542	0.628086	0.398907
C 	-0.838605	0.451771	-0.132198
O 	-1.390842	-0.641899	-0.028216
H 	2.597936	-0.569664	1.318622
H 	0.029573	-1.538819	-0.318735
H 	0.925436	1.520828	-0.978158
H 	-1.402984	1.361734	-0.725154
