16
03/25/2019 10:01, XYZ structure generated by mol3D Class, molSimplify
C 	-1.498799	-0.024199	0.389547
C 	-0.688700	-1.284053	-0.171326
C 	0.735492	-0.726993	-0.363619
C 	1.493198	0.010794	0.653809
C 	0.812525	0.787417	-0.415456
C 	-0.659103	1.238401	-0.185487
H 	-2.565816	-0.012780	0.137574
H 	-1.308180	-0.050944	1.453049
H 	-0.802434	-2.126866	0.474766
H 	-1.130635	-1.639443	-1.149109
H 	1.364139	-1.257943	-1.116280
H 	2.559598	-0.066525	0.696818
H 	1.033901	0.115855	1.673052
H 	1.410132	1.344729	-1.140716
H 	-0.533773	2.042181	0.588883
H 	-1.146118	1.635449	-1.035662
