11
02/13/2019 22:15, XYZ structure generated by mol3D Class, molSimplify
C 	1.780886	-0.518827	0.051840
C 	0.429154	0.145961	-0.050018
N 	0.167918	1.402567	-0.020800
N 	-0.628584	-0.747563	-0.171269
O 	-1.904385	-0.186203	0.063229
H 	2.030751	-0.729908	1.091048
H 	1.807722	-1.458195	-0.512569
H 	2.523092	0.143925	-0.404405
H 	1.032792	1.964736	0.006904
H 	-0.478027	-1.545196	0.470902
H 	-1.682567	0.762690	0.255373
