16
02/13/2019 22:15, XYZ structure generated by mol3D Class, molSimplify
C 	-2.492383	-0.223783	0.235426
C 	-1.210657	0.437699	-0.391077
C 	0.035467	-0.354152	-0.013084
N 	1.187528	0.521840	0.230962
C 	2.459160	-0.244112	-0.135072
H 	-3.335411	0.410423	-0.389222
H 	-2.528260	-1.423805	-0.220880
H 	-2.511052	-0.297999	1.477873
H 	-1.144194	0.536649	-1.640694
H 	-0.945630	1.635946	-0.002900
H 	-0.142846	-1.039749	0.905945
H 	0.247288	-0.938608	-0.907133
H 	1.265613	0.807760	1.304438
H 	3.238253	0.649593	0.684316
H 	2.665781	0.102697	-1.732776
H 	2.305945	-1.744570	0.221365
