8
02/11/2019 18:37, XYZ structure generated by mol3D Class, molSimplify
N 	1.146507	-0.598007	-0.004558
C 	-0.000489	0.142383	-0.000160
N 	-1.152605	-0.605074	-0.009812
O 	0.007219	1.368790	0.003914
H 	1.169048	-1.596204	0.024051
H 	2.006322	-0.070582	0.008541
H 	-2.027629	-0.108278	0.004567
H 	-1.171764	-1.614896	0.102276
