11
02/13/2019 22:15, XYZ structure generated by mol3D Class, molSimplify
O 	-1.549118	-0.911321	-0.042247
C 	-1.365002	0.427732	0.227367
C 	0.059279	0.829074	-0.374610
C 	1.141540	-0.003068	0.349649
O 	2.159623	-0.421377	-0.105773
H 	-2.082680	-0.887619	-1.062075
H 	-1.230389	0.505411	1.319603
H 	-2.181747	1.150797	-0.012760
H 	0.128197	0.658145	-1.436045
H 	0.194047	1.975994	-0.330308
H 	0.938188	-0.259738	1.461536
