11
02/13/2019 22:15, XYZ structure generated by mol3D Class, molSimplify
N 	-1.589876	-0.702220	-0.299474
C 	-1.026807	0.389809	0.515157
C 	0.211299	1.012326	-0.096411
N 	1.331901	0.435873	-0.313184
O 	1.397613	-0.880795	0.122652
H 	-1.941172	-0.329810	-1.166691
H 	-0.835849	-1.337341	-0.572334
H 	-1.765493	1.171392	0.663585
H 	-0.800891	-0.017775	1.500694
H 	0.193343	2.040581	-0.459683
H 	0.758076	-0.991372	0.861174
