19
03/25/2019 10:01, XYZ structure generated by mol3D Class, molSimplify
C 	-2.700328	-0.194384	-0.012192
N 	-1.387276	0.344531	-0.271353
C 	-0.376297	-0.520438	0.242809
C 	0.985927	-0.062831	-0.260083
C 	2.189565	-0.981043	0.021635
C 	1.335444	1.378708	0.091369
H 	-3.400901	0.775311	-0.013737
H 	-2.930762	-0.503038	1.011301
H 	-3.191879	-0.911217	-0.809029
H 	-1.276536	1.172332	0.252695
H 	-0.380169	-0.605862	1.330412
H 	-0.568513	-1.496738	-0.133573
H 	0.873143	-0.089677	-1.301727
H 	2.472386	-1.126154	1.105652
H 	3.153598	-0.484022	-0.530705
H 	1.971437	-1.984670	-0.375443
H 	2.216617	1.824198	-0.474620
H 	0.414216	2.055548	-0.080281
H 	1.663969	1.475595	1.268485
