14
03/25/2019 10:02, XYZ structure generated by mol3D Class, molSimplify
C 	2.394924	-0.738242	-0.208879
C 	1.099592	-0.110486	0.515315
O 	0.608437	0.981130	-0.284414
C 	-0.794952	1.093864	0.129485
C 	-1.427095	-0.288590	-0.358682
O 	-2.466001	-0.868707	0.170420
H 	2.070890	-1.206835	-1.175312
H 	2.744026	-1.613898	0.512829
H 	3.126365	0.192552	-0.536309
H 	0.297410	-0.992641	0.474054
H 	1.202741	0.288641	1.525952
H 	-0.872823	1.181023	1.247560
H 	-1.111333	2.007926	-0.493379
H 	-1.017016	-0.541953	-1.442994
