12
02/11/2019 18:37, XYZ structure generated by mol3D Class, molSimplify
C 	-0.899561	1.267076	-0.012651
C 	0.376221	0.411790	0.018164
C 	0.351526	-0.900319	0.747950
C 	0.327652	-0.874364	-0.746336
H 	-0.878406	1.985566	0.805992
H 	-1.729099	0.597517	0.049419
H 	-0.971526	1.882582	-0.941315
H 	1.340531	0.893250	0.015652
H 	1.245776	-1.264243	1.259744
H 	-0.597378	-1.247886	1.194617
H 	1.237594	-1.177180	-1.275747
H 	-0.552563	-1.196036	-1.193229
