16
03/25/2019 10:01, XYZ structure generated by mol3D Class, molSimplify
C 	1.230741	-1.153832	-0.633823
C 	0.848156	0.165945	0.019671
C 	1.807837	1.230751	-0.040606
C 	-0.348607	0.484882	0.894239
C 	-1.513226	-0.575102	0.707676
C 	-2.170809	-0.053224	-0.845352
H 	0.609781	-1.491529	-1.542744
H 	1.066125	-2.018485	0.130428
H 	2.250918	-0.927282	-0.913347
H 	1.527877	2.296198	0.219084
H 	2.756081	1.096282	-0.541067
H 	-0.025440	0.557632	2.116213
H 	-0.652885	1.647113	0.444952
H 	-1.907565	-1.835919	1.928551
H 	-2.951655	-0.852740	-1.070891
H 	-1.668094	1.245217	-1.788446
