17
03/25/2019 10:01, XYZ structure generated by mol3D Class, molSimplify
C 	1.340792	1.413998	0.177801
C 	0.954359	-0.035380	-0.052921
C 	2.108071	-0.986390	0.068911
C 	-0.260634	-0.505712	-0.291683
C 	-1.525736	0.231994	-0.470139
N 	-2.581825	-0.320336	0.423530
H 	0.504416	2.132968	0.037739
H 	2.166116	1.695793	-0.525146
H 	1.807480	1.519385	1.169170
H 	2.846349	-0.840054	-0.735501
H 	2.649317	-0.842091	1.027543
H 	1.770735	-2.006837	0.038262
H 	-0.367662	-1.577026	-0.406655
H 	-1.836983	0.045739	-1.505450
H 	-1.356546	1.323542	-0.345202
H 	-3.440720	0.241575	0.308248
H 	-2.265414	-0.172410	1.384622
