9
02/11/2019 18:17, XYZ structure generated by mol3D Class, molSimplify
C 	-1.159495	-0.496403	-0.032112
C 	0.003793	0.520150	0.026740
C 	1.315002	0.133622	0.032212
H 	-1.195379	-1.072888	-0.936765
H 	-0.862008	-1.188261	0.851474
H 	-2.221604	-0.314042	0.137442
H 	-0.327514	1.519961	-0.160085
H 	1.525701	-0.972462	0.093538
H 	2.065812	0.903275	-0.305191
