15
02/13/2019 22:15, XYZ structure generated by mol3D Class, molSimplify
C 	1.919906	0.644860	-0.200471
C 	1.281641	-0.691192	0.214622
O 	-0.043302	-0.633077	-0.289192
C 	-0.875320	0.276219	0.436362
C 	-2.297018	0.208554	-0.218276
H 	1.506625	1.490754	0.432096
H 	1.840252	0.911873	-1.274150
H 	3.029518	0.732975	-0.020075
H 	1.264173	-0.843354	1.342439
H 	1.798331	-1.488662	-0.252760
H 	-0.873709	0.035432	1.554950
H 	-0.424837	1.310860	0.196984
H 	-2.966881	1.095356	0.034097
H 	-2.151088	0.211412	-1.315821
H 	-2.921982	-0.750246	0.103666
