13
03/25/2019 10:01, XYZ structure generated by mol3D Class, molSimplify
C 	1.996363	-0.441594	0.170090
O 	0.922158	0.295085	-0.489597
C 	-0.093803	0.480246	0.411207
C 	-1.011571	1.670614	-0.010299
C 	-0.955933	-0.765341	0.126550
N 	-1.460312	-1.766262	-0.280014
H 	1.596587	-1.543365	0.358393
H 	2.375568	0.007442	1.163035
H 	2.732589	-0.381555	-0.613723
H 	0.190971	0.633073	1.489857
H 	-1.749230	1.846959	0.797199
H 	-0.327013	2.576336	-0.132523
H 	-1.418861	1.487751	-1.064470
