15
02/13/2019 22:15, XYZ structure generated by mol3D Class, molSimplify
C 	2.511157	-0.184191	0.057726
C 	1.185770	0.484283	-0.112691
C 	-0.053478	-0.462584	0.050801
O 	-1.152853	0.457257	0.098295
C 	-2.476693	-0.096748	-0.082455
H 	2.793360	-0.679047	1.090536
H 	2.581099	-0.955351	-0.736297
H 	3.402147	0.427233	-0.269615
H 	0.821217	1.279161	0.613259
H 	0.971780	0.962144	-1.088526
H 	-0.034627	-0.992363	-0.835565
H 	0.002575	-1.015248	0.976704
H 	-2.759204	-0.333206	-1.281267
H 	-3.195436	0.678187	0.500695
H 	-2.521341	-1.257575	0.501414
