11
02/13/2019 22:15, XYZ structure generated by mol3D Class, molSimplify
C 	-2.627038	-0.169594	0.097807
C 	-1.187646	0.085769	-0.092908
C 	-0.005501	0.222864	-0.151381
C 	1.484620	0.594535	-0.089879
O 	2.197773	-0.612694	0.056319
H 	-3.205281	-0.299522	-1.757100
H 	-2.681704	-1.797284	1.171692
H 	-3.364530	1.384255	0.877806
H 	1.677284	1.223351	0.781153
H 	1.967638	1.157928	-0.936093
H 	2.120368	-0.957396	1.122544
