9
02/11/2019 18:37, XYZ structure generated by mol3D Class, molSimplify
C 	1.646812	0.138389	0.068830
O 	0.366970	-0.536590	-0.073128
N 	-0.560604	0.489418	-0.076325
C 	-1.730225	-0.058241	0.091716
H 	2.105606	-0.090287	1.036397
H 	1.480593	1.192966	-0.012169
H 	2.305695	-0.085978	-0.830971
H 	-1.821595	-1.119508	0.065425
H 	-2.605985	0.598772	0.050796
