8
02/13/2019 22:15, XYZ structure generated by mol3D Class, molSimplify
C 	1.172835	-0.184195	0.117398
O 	0.035605	-1.206541	-0.121047
C 	-1.063811	-0.394944	0.076042
N 	-0.892516	0.889168	0.075640
O 	0.480583	1.073586	-0.129287
H 	1.399168	-0.366903	1.200968
H 	2.025648	-0.430371	-0.629347
H 	-1.941783	-0.986403	0.047114
