14
02/13/2019 22:15, XYZ structure generated by mol3D Class, molSimplify
C 	-0.570820	1.450522	0.069365
C 	-0.487978	0.002791	-0.368765
N 	-1.650300	-0.813775	0.019110
C 	0.761638	-0.675865	0.200640
O 	1.938764	0.066598	0.052008
H 	-0.893747	1.518298	1.133286
H 	-1.431027	1.870683	-0.513542
H 	0.385866	2.009452	-0.074776
H 	-0.354820	0.075161	-1.452899
H 	-1.938373	-0.615768	0.957437
H 	-1.575241	-1.818120	-0.195130
H 	0.866540	-1.678026	-0.398722
H 	0.592764	-0.881641	1.268504
H 	2.144887	0.044723	-0.901467
