12
02/13/2019 22:15, XYZ structure generated by mol3D Class, molSimplify
C 	1.752965	0.587797	-0.366891
C 	0.848669	-0.307508	0.557330
O 	-0.148828	-0.986178	-0.293767
N 	-1.408915	-0.349377	-0.324072
C 	-1.509404	0.749776	0.300207
H 	2.867515	-0.232685	-0.767966
H 	0.860934	0.973299	-1.345169
H 	1.980724	1.656775	0.593920
H 	0.367505	0.240984	1.402542
H 	1.528495	-1.091510	1.006003
H 	-2.436345	1.232581	0.522792
H 	-0.570615	1.408179	0.535896
