13
02/13/2019 22:15, XYZ structure generated by mol3D Class, molSimplify
C 	1.961081	0.129160	-0.384242
C 	0.793424	-0.365460	0.546414
C 	-0.652756	-0.100460	0.098743
N 	-1.021279	1.204896	0.084179
N 	-1.507535	-1.000756	-0.275036
H 	1.820669	1.145036	-0.548106
H 	1.910488	-0.402724	-1.384110
H 	2.923990	-0.087246	0.098843
H 	0.948603	0.144519	1.527343
H 	0.923911	-1.442208	0.793130
H 	-0.210949	1.708171	-0.331782
H 	-1.976280	1.311930	-0.308951
H 	-1.203120	-1.942731	-0.037932
