16
02/13/2019 22:15, XYZ structure generated by mol3D Class, molSimplify
C 	2.384413	0.124682	0.123382
C 	0.945406	0.358067	-0.316470
N 	0.078256	-0.688922	0.204234
C 	-1.306085	-0.617449	-0.243513
C 	-2.091335	0.629675	0.173465
H 	2.724519	-0.863295	-0.200901
H 	2.472772	0.170391	1.216270
H 	3.051523	0.885404	-0.295506
H 	0.884268	0.319601	-1.412341
H 	0.634735	1.377535	-0.023076
H 	0.105173	-0.668001	1.221269
H 	-1.302075	-0.700719	-1.338401
H 	-1.819414	-1.511754	0.131690
H 	-1.659870	1.543829	-0.248601
H 	-2.102408	0.736877	1.265039
H 	-3.130945	0.565822	-0.166241
