10
02/11/2019 18:37, XYZ structure generated by mol3D Class, molSimplify
C 	1.448916	0.106321	-0.173120
C 	0.182019	-0.086903	0.544087
C 	-0.999800	0.627030	-0.077357
O 	-0.828415	-0.782516	-0.269764
H 	1.274498	0.295238	-1.231181
H 	2.246101	-0.610870	0.045459
H 	1.865597	0.948673	0.332764
H 	0.091529	-0.297568	1.661608
H 	-0.869787	1.219218	-0.908370
H 	-1.805752	0.974190	0.608601
