8
02/11/2019 18:37, XYZ structure generated by mol3D Class, molSimplify
O 	-1.540790	-0.488894	-0.103645
C 	-0.633716	0.584883	0.036220
C 	0.775676	0.160481	-0.006309
C 	1.919445	-0.215403	-0.011879
H 	-1.329589	-1.137731	0.579422
H 	-0.809644	1.145612	0.966650
H 	-0.839352	1.265453	-0.795129
H 	2.936432	-0.542000	-0.030018
