11
03/25/2019 10:02, XYZ structure generated by mol3D Class, molSimplify
N 	2.675207	-0.424900	0.070562
C 	1.615811	0.310498	0.036941
N 	0.338592	-0.078132	-0.084697
N 	-0.696632	0.796502	-0.185571
C 	-1.895337	0.307000	0.084334
O 	-1.953879	-0.941836	0.064029
H 	2.419410	-1.402660	-0.129915
H 	1.836012	1.374737	0.493304
H 	-0.111602	-0.996289	-0.797134
H 	-0.474353	1.784010	0.415603
H 	-2.738290	1.009034	0.332682
