11
02/13/2019 22:15, XYZ structure generated by mol3D Class, molSimplify
N 	-1.915280	-0.535829	-0.185362
N 	-1.332263	0.693163	-0.020691
C 	-0.063180	0.710065	0.135336
C 	0.898793	-0.458344	0.158060
O 	2.245139	-0.089128	-0.065128
H 	-2.891737	-0.474325	0.062029
H 	-1.484833	-1.306424	0.349351
H 	0.364240	1.698911	0.203027
H 	0.913125	-0.932770	1.130703
H 	0.611084	-1.224596	-0.571365
H 	2.300148	0.331439	-0.922668
