13
02/13/2019 22:15, XYZ structure generated by mol3D Class, molSimplify
C 	0.296479	1.462927	0.006121
N 	0.362922	0.011257	0.341491
C 	1.601407	-0.716153	-0.134372
N 	-0.663469	-0.768507	-0.051614
C 	-1.844541	-0.283775	-0.135387
H 	1.340602	1.883482	0.582393
H 	-0.724318	1.846883	0.592964
H 	0.079633	1.814801	-1.035306
H 	0.543395	-2.341266	-0.480926
H 	2.557593	-0.159905	-1.740238
H 	2.638733	-0.460040	1.308186
H 	-2.127818	0.735951	0.120614
H 	-2.671350	-0.916193	-0.236262
