13
02/13/2019 22:15, XYZ structure generated by mol3D Class, molSimplify
C 	2.177215	0.672573	0.085142
C 	1.429923	-0.692971	0.014259
C 	-0.019182	-0.384143	-0.095912
C 	-1.200190	-0.060620	-0.113917
C 	-2.653932	0.240505	0.078451
H 	3.242665	0.384604	-0.091693
H 	1.968664	1.295805	1.045947
H 	1.887273	1.344670	-0.722723
H 	1.575190	-1.216839	-0.974894
H 	1.694628	-1.506430	0.810123
H 	-3.285096	-0.687731	-0.406017
H 	-2.788933	0.460160	1.423143
H 	-2.683506	1.330111	-0.703121
