12
03/25/2019 10:01, XYZ structure generated by mol3D Class, molSimplify
C 	-0.896069	-0.925162	0.322395
C 	-1.268776	0.442453	-0.187084
N 	-0.281178	1.431560	0.067343
C 	0.895509	1.023142	0.047814
N 	1.318014	-0.328156	-0.135832
O 	0.344825	-1.320405	-0.257441
H 	-0.723164	-0.971892	1.377513
H 	-1.699576	-1.674463	0.124481
H 	-2.227915	0.754777	0.240639
H 	-1.464112	0.357076	-1.294081
H 	1.745220	1.669894	0.241166
H 	1.918506	-0.464890	0.673742
