13
02/13/2019 22:15, XYZ structure generated by mol3D Class, molSimplify
C 	-1.268454	-0.899200	-0.002337
C 	-0.141151	0.071391	0.027657
O 	-0.572755	1.442203	-0.124716
C 	1.109944	-0.277551	0.772300
C 	1.122741	-0.302046	-0.743563
H 	-0.945702	-1.920539	-0.093970
H 	-1.992205	-0.747270	-0.847049
H 	-1.940080	-0.831616	0.894373
H 	-1.128125	1.696689	0.601357
H 	1.561017	0.615091	1.200917
H 	1.223522	-1.169322	1.338047
H 	1.127345	-1.229801	-1.298097
H 	1.615350	0.487067	-1.247787
