10
02/13/2019 22:15, XYZ structure generated by mol3D Class, molSimplify
O 	0.278540	1.830119	-0.019509
C 	0.207151	0.638735	0.028487
C 	-0.082540	-0.429464	1.128902
N 	-0.163885	-1.411709	-0.013429
C 	-0.050795	-0.396146	-1.098654
H 	0.831207	-0.530411	1.655800
H 	-0.977101	-0.247245	1.797446
H 	-1.068041	-1.940242	-0.000135
H 	-0.929939	-0.149788	-1.773951
H 	0.715534	-0.790178	-1.882301
