13
03/25/2019 10:01, XYZ structure generated by mol3D Class, molSimplify
C 	2.479226	-0.293520	0.022459
N 	1.050147	-0.240495	-0.034588
C 	0.347333	0.902205	-0.005216
C 	-1.031108	1.079036	0.042331
C 	-1.916593	-0.086354	0.031075
O 	-1.509731	-1.241764	-0.045533
H 	2.772393	0.768889	-0.458274
H 	2.884571	-0.369447	1.160708
H 	2.845538	-1.248760	-0.633195
H 	0.459429	-1.037895	0.024235
H 	0.956462	1.785519	-0.072629
H 	-1.441350	2.092048	0.165569
H 	-2.993802	0.116855	-0.062536
