12
02/13/2019 22:15, XYZ structure generated by mol3D Class, molSimplify
O 	1.692661	0.018931	-0.377565
C 	0.545759	0.023211	0.508151
C 	-0.550686	-1.072703	0.277731
N 	-1.121105	0.019971	-0.633100
C 	-0.538793	1.030176	0.257531
H 	1.316934	-0.320766	-1.305378
H 	1.087869	-0.052635	1.526779
H 	-0.234331	-1.874465	-0.317540
H 	-1.153705	-1.395878	1.119722
H 	-2.114931	0.000385	-0.768630
H 	-0.224414	1.968333	-0.164159
H 	-1.151517	1.327098	1.080232
