11
02/11/2019 18:37, XYZ structure generated by mol3D Class, molSimplify
N 	-1.558221	-0.491033	0.092544
C 	-0.722542	0.624020	-0.331453
C 	0.694833	0.486341	0.267432
O 	1.486113	-0.621770	-0.037771
H 	-1.603691	-0.501441	1.112632
H 	-1.052325	-1.407776	-0.111572
H 	-1.227337	1.565648	-0.063146
H 	-0.718032	0.635124	-1.402947
H 	0.487831	0.413237	1.294103
H 	1.197493	1.480149	0.140555
H 	2.201127	-0.407992	-0.861024
