15
03/25/2019 10:01, XYZ structure generated by mol3D Class, molSimplify
C 	2.097117	-0.320209	-0.582806
O 	1.348015	0.197905	0.597718
C 	0.000635	0.035580	0.684024
C 	-0.980247	1.064844	0.145692
N 	-1.968351	0.006001	-0.238004
C 	-0.774143	-0.958816	-0.255700
H 	0.713421	-0.383494	-2.105165
H 	2.868634	-2.080018	-0.361551
H 	3.212008	1.066021	-0.260604
H 	-0.179681	-0.254753	1.777472
H 	-1.441828	1.765190	0.919963
H 	-0.519860	1.654021	-0.654417
H 	-2.336276	0.228056	-1.181267
H 	-0.267943	-1.033792	-1.295087
H 	-0.923175	-2.059122	0.265432
