11
02/13/2019 22:15, XYZ structure generated by mol3D Class, molSimplify
C 	-2.144598	-0.129470	-0.296736
C 	-1.062368	0.127588	0.314647
C 	0.281283	0.034008	0.671440
C 	1.114675	-0.739318	-0.324109
C 	1.287419	0.724076	-0.237867
H 	-3.045064	-0.153033	-0.907874
H 	0.724492	0.151358	1.761292
H 	1.914176	-1.370068	0.087415
H 	0.675363	-1.267185	-1.172905
H 	0.840237	1.229263	-1.060331
H 	2.015333	1.208655	0.266156
