11
02/13/2019 22:15, XYZ structure generated by mol3D Class, molSimplify
C 	-1.905290	-0.022606	-0.004656
N 	-0.590288	-0.621514	-0.031380
C 	0.529188	0.110376	0.005505
N 	1.685978	-0.586830	0.012828
O 	0.461596	1.348808	0.034690
H 	-2.359251	0.002099	1.064321
H 	-1.929739	1.076066	-0.356329
H 	-2.540660	-0.648761	-0.720233
H 	-0.565121	-1.618120	-0.033113
H 	1.692726	-1.572448	-0.042275
H 	2.540423	-0.077312	-0.215237
