12
02/11/2019 18:37, XYZ structure generated by mol3D Class, molSimplify
C 	1.315935	-0.744156	0.003818
C 	0.023563	0.139661	-0.020061
C 	-1.266403	-0.683127	0.093003
C 	-0.045705	1.486751	-0.060903
H 	1.346114	-1.257023	1.445763
H 	1.126576	-1.765394	-1.000399
H 	2.264367	0.276375	-0.428130
H 	-1.183116	-1.766185	-0.022841
H 	-1.839239	-0.382321	0.932696
H 	-1.980382	-0.494712	-0.770647
H 	0.901342	2.139062	-0.079738
H 	-0.961783	2.073282	-0.265523
