15
02/13/2019 22:15, XYZ structure generated by mol3D Class, molSimplify
C 	-2.491453	-0.377520	-0.111424
C 	-1.272842	0.549119	0.069080
C 	0.040710	-0.207211	0.114720
C 	1.248776	0.387120	-0.017446
C 	2.603325	-0.265942	-0.054461
H 	-3.414683	0.230056	-0.142854
H 	-2.422057	-0.922485	-1.015913
H 	-2.446301	-1.037295	0.836445
H 	-1.184185	1.321635	-0.748122
H 	-1.360051	1.081669	1.015122
H 	-0.080651	-1.262326	0.239856
H 	1.224663	1.429629	-0.094923
H 	3.353736	0.534858	-0.470498
H 	3.065581	-0.443310	1.080499
H 	2.613790	-1.222673	-0.705186
