11
02/13/2019 22:15, XYZ structure generated by mol3D Class, molSimplify
C 	1.898649	-0.114737	0.032897
O 	0.584717	-0.684006	-0.066164
C 	-0.509890	0.125800	-0.023515
N 	-1.650365	-0.641550	0.043073
N 	-0.389900	1.399903	0.000027
H 	2.198158	0.545652	-0.837807
H 	2.072166	0.511929	0.902276
H 	2.516300	-1.068034	0.200104
H 	-1.553262	-1.623695	0.149060
H 	-2.545350	-0.190882	-0.088019
H 	-1.282743	1.777487	0.013849
