8
02/13/2019 22:15, XYZ structure generated by mol3D Class, molSimplify
C 	-0.693712	-0.875262	0.007355
N 	0.683219	-0.952724	0.023808
C 	1.101425	0.244553	-0.000218
N 	0.009953	1.046488	-0.063728
N 	-1.163712	0.317267	0.027146
H 	-1.288930	-1.835664	-0.258691
H 	2.165051	0.604173	-0.030823
H 	0.099285	2.100804	0.382026
