13
02/13/2019 22:15, XYZ structure generated by mol3D Class, molSimplify
C 	1.997614	0.397806	-0.090109
C 	0.851850	-0.730182	-0.075856
C 	-0.439131	-0.241553	0.521116
C 	-1.762561	-0.295834	-0.123166
O 	-0.985597	0.902988	-0.214026
H 	2.318799	0.441796	0.990472
H 	1.729597	1.467020	-0.443350
H 	2.830658	-0.009577	-0.730937
H 	0.739759	-1.062177	-1.101554
H 	1.366012	-1.516584	0.587489
H 	-0.456791	-0.143363	1.624825
H 	-2.617651	-0.302020	0.501144
H 	-1.862739	-0.834537	-1.070723
