10
02/11/2019 18:37, XYZ structure generated by mol3D Class, molSimplify
O 	1.455287	-0.112721	-0.197672
C 	0.237616	-0.016669	0.481339
C 	-0.880572	0.771519	-0.135834
C 	-0.909023	-0.737166	-0.137169
H 	1.906103	0.735392	-0.101861
H 	0.314213	-0.024098	1.569690
H 	-0.668187	1.260487	-1.082642
H 	-1.565115	1.307670	0.515808
H 	-1.613846	-1.249369	0.510811
H 	-0.703296	-1.234356	-1.079984
