11
02/13/2019 22:15, XYZ structure generated by mol3D Class, molSimplify
C 	1.710273	-0.713125	0.154104
N 	1.246132	0.534066	-0.330869
C 	-0.066695	0.831543	0.194903
C 	-1.280683	-0.107688	-0.002720
N 	-2.425847	-0.554010	-0.065989
H 	1.887451	-0.522333	1.179407
H 	1.003442	-1.586947	-0.062315
H 	2.718570	-0.959466	-0.299133
H 	1.216588	0.393349	-1.330949
H 	-0.331834	1.757012	-0.152605
H 	-0.175910	0.996761	1.382589
