13
02/13/2019 22:15, XYZ structure generated by mol3D Class, molSimplify
C 	-2.001989	0.580200	0.037666
N 	-1.209556	-0.623753	-0.064825
N 	0.134364	-0.669617	-0.030575
C 	0.862402	0.382617	-0.042253
C 	2.309930	0.067558	0.058386
H 	-3.045993	0.328736	0.306362
H 	-1.947542	1.219221	-0.922185
H 	-1.516209	1.155005	0.872769
H 	-1.611410	-1.536973	0.231662
H 	0.649726	1.504709	0.082765
H 	2.595448	-0.209741	1.147014
H 	2.517470	-0.709148	-0.701064
H 	2.896469	0.954876	-0.332393
