13
02/13/2019 22:15, XYZ structure generated by mol3D Class, molSimplify
C 	-1.590166	-0.807671	-0.268868
C 	-0.473520	0.056808	0.438757
O 	-0.541224	1.407108	-0.146110
C 	0.835004	-0.675081	0.189322
C 	2.015632	-0.075171	-0.154491
H 	-1.555161	-1.896956	-0.151215
H 	-2.617711	-0.564334	0.233067
H 	-1.552936	-0.504901	-1.399780
H 	-0.682890	0.109897	1.492779
H 	0.264650	1.888877	0.240618
H 	0.763992	-1.766998	0.455734
H 	2.988250	-0.543267	-0.424968
H 	1.983441	1.040588	-0.466588
