14
02/13/2019 22:15, XYZ structure generated by mol3D Class, molSimplify
C 	1.822742	-0.646206	0.021061
C 	0.540021	0.158169	-0.027704
C 	0.524707	1.469058	-0.047184
C 	-0.695846	-0.752107	-0.008624
N 	-2.033211	-0.013318	-0.020515
H 	1.880316	-1.211685	-0.953462
H 	2.688149	0.014234	0.142523
H 	1.598350	-1.241280	0.876608
H 	-0.359677	2.269732	0.000388
H 	1.532435	1.923422	-0.002953
H 	-0.743205	-1.279619	-0.949213
H 	-0.451927	-1.490774	0.809252
H 	-2.811472	-0.570725	-0.337612
H 	-2.368319	0.494817	0.901229
