13
02/13/2019 22:15, XYZ structure generated by mol3D Class, molSimplify
C 	0.729272	-0.990598	0.187988
C 	-0.762596	-0.973178	-0.237671
C 	-1.137910	0.396227	0.247347
O 	-0.021303	1.238316	-0.193882
C 	1.176621	0.446722	-0.008038
H 	1.354918	-1.658276	-0.430879
H 	0.730148	-1.355536	1.239635
H 	-1.353739	-1.777497	0.220284
H 	-0.891295	-1.137195	-1.368604
H 	-2.004172	0.968232	-0.221135
H 	-1.251713	0.412553	1.369134
H 	1.763298	0.812290	0.899841
H 	1.926490	0.573325	-0.889070
