14
03/25/2019 10:02, XYZ structure generated by mol3D Class, molSimplify
O 	-2.412327	-0.630818	-0.333778
C 	-1.441394	0.002352	0.793485
C 	-0.518421	0.694447	-0.308260
C 	0.828851	0.976314	0.281117
C 	1.786809	-0.149780	0.001497
C 	2.649590	-0.954934	-0.386783
H 	-1.794142	-1.437867	-1.021165
H 	-0.567420	-0.790884	1.788695
H 	-2.352037	0.868062	1.654646
H 	-0.902743	1.755085	-0.724970
H 	-0.162046	-0.059154	-1.266972
H 	1.158949	1.837487	-0.246595
H 	0.792259	1.375208	1.297334
H 	3.413660	-1.759463	-0.512831
