11
02/13/2019 22:15, XYZ structure generated by mol3D Class, molSimplify
N 	1.586785	-0.695292	0.030106
C 	0.476152	0.084165	0.015052
N 	0.486679	1.369259	-0.024023
C 	-0.851767	-0.649872	-0.038189
C 	-1.986341	0.011933	0.021818
H 	1.469976	-1.695233	0.034595
H 	2.497433	-0.286159	-0.068848
H 	1.417882	1.776100	-0.048430
H 	-0.790542	-1.724520	-0.190532
H 	-2.972982	-0.454702	-0.018295
H 	-1.990981	1.083751	0.222683
