11
02/11/2019 18:37, XYZ structure generated by mol3D Class, molSimplify
C 	1.505824	-0.011482	0.064448
N 	0.139293	0.111451	-0.519158
C 	-0.880036	-0.797211	0.077109
C 	-0.960124	0.706485	0.141288
H 	2.453130	0.414536	-0.668341
H 	1.559313	0.616665	1.150718
H 	1.630890	-1.408039	0.318228
H 	-0.723076	-1.154846	1.203623
H 	-1.455271	-1.329079	-0.676921
H 	-0.813053	1.144522	1.170140
H 	-1.559161	1.384675	-0.478700
