8
02/11/2019 18:07, XYZ structure generated by mol3D Class, molSimplify
C 	0.745613	0.019200	0.009656
C 	-0.764510	-0.009238	-0.015625
H 	1.139537	0.842762	-0.229047
H 	1.178012	-0.201660	1.003991
H 	1.223633	-0.848714	-0.790540
H 	-0.968120	0.780801	0.674950
H 	-1.189104	-1.003662	0.466317
H 	-1.148274	0.332589	-1.040845
