11
02/13/2019 22:15, XYZ structure generated by mol3D Class, molSimplify
C 	0.765057	1.409377	0.038813
C 	0.591701	-0.142336	-0.013924
O 	1.543370	-0.951178	-0.088565
N 	-0.669950	-0.613870	0.277839
N 	-1.808465	0.109561	-0.142155
H 	0.488304	1.714578	1.062281
H 	1.809372	1.592644	-0.248980
H 	0.169425	1.833784	-0.773319
H 	-0.829365	-1.686644	-0.336377
H 	-2.221998	0.124131	-1.050925
H 	-2.533227	-0.002551	0.571316
