12
02/13/2019 22:15, XYZ structure generated by mol3D Class, molSimplify
N 	1.610692	-0.800392	0.288891
C 	1.086652	0.300393	-0.514761
C 	-0.035918	0.863072	0.358145
C 	-1.251330	0.074917	0.171524
C 	-2.331753	-0.446404	-0.276150
H 	2.177750	-1.343853	-0.446693
H 	2.447341	-0.569943	1.014045
H 	0.521415	-0.118388	-1.418210
H 	1.864908	1.080162	-0.946779
H 	0.399734	0.896704	1.425231
H 	-0.311393	1.841555	-0.081350
H 	-3.086752	-1.180620	-0.337633
