12
03/25/2019 10:01, XYZ structure generated by mol3D Class, molSimplify
C 	2.155333	-0.638988	0.042083
N 	0.687479	-0.673494	-0.033544
C 	-0.012571	0.494560	-0.110118
O 	0.505073	1.650962	0.023991
N 	-1.397915	0.373185	-0.271625
O 	-1.938356	-0.850837	0.315013
H 	2.441121	-2.326943	0.685332
H 	2.849012	-0.217934	-1.648148
H 	2.204265	0.851474	1.379836
H 	0.277605	-1.604641	-0.302219
H 	-1.759545	1.255277	-0.016555
H 	-2.292472	-1.313610	-0.461121
