8
02/13/2019 22:15, XYZ structure generated by mol3D Class, molSimplify
N 	1.090591	1.023906	0.251688
C 	0.482896	-0.139252	-0.005921
O 	1.070493	-1.196247	-0.041493
C 	-0.969340	-0.131075	0.049088
C 	-2.142833	0.153081	-0.012366
H 	0.673913	1.963687	-1.565390
H 	2.108032	1.010526	-1.357701
H 	-3.177752	0.152545	-0.282207
