19
03/25/2019 10:02, XYZ structure generated by mol3D Class, molSimplify
C 	-2.889261	0.564838	0.011558
C 	-1.788962	-0.410362	-0.133232
C 	-0.359199	0.111507	0.160121
N 	0.686783	-0.951055	-0.103141
C 	1.987687	-0.498944	0.301593
C 	2.388398	0.898129	-0.177918
H 	-2.783021	1.413381	-0.620945
H 	-3.023368	0.900913	1.024664
H 	-3.848525	-0.016854	-0.237002
H 	-2.033004	-1.388852	0.333912
H 	-1.799808	-0.646764	-1.136831
H 	-0.092059	1.003306	-0.369734
H 	-0.362907	0.501056	1.212768
H 	0.802798	-0.928728	-1.124826
H 	2.649932	-1.260920	-0.056509
H 	1.960174	-0.521852	1.423870
H 	2.092792	1.760509	0.644084
H 	3.587502	0.847786	-0.164876
H 	1.906601	1.201469	-1.255924
