10
02/13/2019 22:15, XYZ structure generated by mol3D Class, molSimplify
O 	-2.140604	-0.026388	-0.048870
C 	-0.947384	0.085804	0.243457
C 	0.255691	-0.159531	-0.537431
C 	1.402751	-0.630400	0.167314
N 	1.294040	0.754975	-0.040911
H 	-0.657498	0.277340	1.357054
H 	0.060440	-0.363546	-1.630754
H 	1.278190	-1.009288	1.212751
H 	2.199822	-1.113557	-0.275945
H 	0.945443	1.313868	0.814366
