8
02/13/2019 22:15, XYZ structure generated by mol3D Class, molSimplify
C 	1.293040	-1.024998	0.000090
C 	0.420924	0.204229	-0.000103
O 	0.838137	1.334935	0.000143
C 	-1.045787	-0.034669	-0.000202
N 	-2.186053	-0.229573	0.000037
H 	1.937358	-0.996280	-0.884155
H 	1.939584	-0.996030	0.882266
H 	0.710743	-1.948124	0.001692
