10
02/11/2019 18:37, XYZ structure generated by mol3D Class, molSimplify
C 	1.496128	-0.500745	-0.030744
C 	0.509341	0.692161	0.026481
N 	-0.753176	0.666223	-0.038048
N 	-1.383964	-0.465242	0.004664
H 	1.495752	-1.188177	-0.864112
H 	1.263321	-1.231213	0.781685
H 	2.487083	-0.108764	0.122027
H 	0.998168	1.743855	0.137073
H 	-2.399069	-0.487155	0.132238
H 	-0.773103	-1.229013	0.205719
