11
03/25/2019 10:02, XYZ structure generated by mol3D Class, molSimplify
N 	2.761626	-0.274811	-0.099387
C 	1.666430	0.295635	0.322827
N 	0.414837	-0.219076	-0.043544
N 	-0.625794	0.744790	-0.246808
C 	-1.903606	0.299599	0.001369
O 	-2.196138	-0.878657	0.150973
H 	2.569894	-1.311738	-0.637870
H 	1.644972	1.327469	1.116132
H 	0.033834	-1.182491	-1.050393
H 	-0.597602	1.738266	-0.277900
H 	-2.623735	1.051147	0.008932
