9
02/11/2019 18:37, XYZ structure generated by mol3D Class, molSimplify
N 	-1.733280	-0.040485	0.046959
N 	-0.417699	0.444497	-0.090343
C 	0.644084	-0.386062	-0.003188
N 	1.872964	-0.039571	0.009522
H 	-1.869082	-0.687791	0.807398
H 	-2.109114	-0.473004	-0.790914
H 	-0.334171	1.409863	0.231382
H 	0.323283	-1.450920	-0.008781
H 	1.939623	0.987685	0.035140
