10
02/11/2019 18:37, XYZ structure generated by mol3D Class, molSimplify
C 	-1.782955	0.057726	-0.016968
O 	-0.426844	-0.409719	-0.000065
C 	0.640529	0.379822	-0.005369
C 	1.865072	-0.129466	0.007533
H 	-2.243384	-0.318052	0.962771
H 	-1.575496	1.147771	0.059141
H 	-2.375102	-0.484306	-0.831112
H 	0.424243	1.474619	-0.007252
H 	2.777039	0.571101	0.090767
H 	2.206941	-1.159567	-0.097027
