15
02/13/2019 22:15, XYZ structure generated by mol3D Class, molSimplify
C 	1.929589	0.027557	0.119189
C 	0.495993	-0.015840	-0.418881
C 	-0.522977	-1.122084	0.112421
C 	-1.595064	0.037417	0.022589
C 	-0.489367	1.059714	0.098901
H 	1.857829	0.010056	1.181312
H 	2.601796	-0.810244	-0.175776
H 	2.389572	0.982983	-0.145054
H 	0.439128	-0.047445	-1.559337
H 	-0.668988	-1.951353	-0.552238
H 	-0.289672	-1.384052	1.153622
H 	-2.370116	0.002148	0.774395
H 	-2.067524	0.060840	-0.969066
H 	-0.173048	1.297562	1.095088
H 	-0.636946	1.997108	-0.452682
