10
02/11/2019 18:37, XYZ structure generated by mol3D Class, molSimplify
C 	1.778641	-0.110754	0.019569
N 	0.403098	0.316992	-0.149428
N 	-0.644982	-0.444564	0.087838
C 	-1.813777	0.072507	0.017213
H 	2.318774	0.827038	0.653230
H 	2.222626	-0.266292	-1.069223
H 	1.780787	-1.083220	0.726570
H 	0.146111	1.312317	0.239610
H 	-1.947838	1.102959	-0.264367
H 	-2.613657	-0.666110	0.131979
