10
02/13/2019 22:15, XYZ structure generated by mol3D Class, molSimplify
N 	-1.617694	-0.634975	-0.054274
C 	-0.469883	0.128078	0.007109
O 	-0.491421	1.350911	0.002038
C 	0.801876	-0.663519	-0.000216
C 	1.957532	-0.019438	0.010660
H 	-1.606547	-1.635938	0.418644
H 	-2.504148	-0.155599	0.211308
H 	0.733370	-1.757888	-0.071168
H 	2.900845	-0.536810	-0.070358
H 	1.968258	1.051021	0.024329
