10
02/13/2019 22:15, XYZ structure generated by mol3D Class, molSimplify
C 	-1.545809	-0.778181	0.123974
O 	-1.091020	0.440718	-0.415002
C 	0.060155	0.933274	0.190941
C 	1.235290	0.049606	0.030042
N 	2.157274	-0.635556	-0.080659
H 	-1.743420	-0.670716	1.200986
H 	-2.463772	-1.055379	-0.406654
H 	-0.811437	-1.577102	-0.029877
H 	-0.091305	1.097964	1.268951
H 	0.280714	1.881164	-0.291686
