12
02/13/2019 22:15, XYZ structure generated by mol3D Class, molSimplify
C 	2.365130	0.235551	0.065763
N 	1.120843	-0.456673	0.109494
C 	0.041303	0.109175	-0.132009
N 	-1.192669	-0.469381	-0.235962
N 	-2.225626	0.394380	0.076103
H 	2.998858	0.108557	-0.892221
H 	3.069031	-0.220436	0.920938
H 	2.249301	1.383336	0.107770
H 	-0.046296	1.130060	-0.474054
H 	-1.184068	-1.347562	0.304408
H 	-3.170417	-0.025282	-0.153823
H 	-2.070254	0.793973	1.231700
