11
02/13/2019 22:15, XYZ structure generated by mol3D Class, molSimplify
C 	1.148431	1.220130	-0.148397
C 	0.395116	-0.023617	0.390073
O 	0.811901	-1.236046	-0.179548
C 	-0.975839	-0.035896	0.088029
C 	-2.153541	-0.024425	-0.150215
H 	2.270943	0.729833	-0.196456
H 	0.765250	1.570712	-1.187501
H 	1.004396	2.117378	0.647616
H 	0.520506	-0.125248	1.403070
H 	1.745641	-1.342152	-0.202421
H 	-3.278008	0.035906	-0.077554
