9
02/11/2019 18:17, XYZ structure generated by mol3D Class, molSimplify
C 	-1.230009	-0.266137	0.023012
C 	0.094392	0.541761	0.050660
O 	1.267846	-0.202539	-0.115685
H 	-1.936216	0.553997	-0.429400
H 	-1.832173	-0.671090	1.048042
H 	-1.089190	-1.029263	-0.837005
H 	0.165484	1.246409	-0.768418
H 	0.117369	0.973574	1.110388
H 	1.035493	-1.323002	0.122211
