8
02/13/2019 22:15, XYZ structure generated by mol3D Class, molSimplify
N 	-1.488802	-0.688324	0.053021
C 	-0.432130	0.137123	-0.074577
O 	-0.445609	1.327228	0.015392
C 	0.841447	-0.584539	-0.080603
O 	1.815994	0.071553	0.047718
H 	-2.453960	-0.267828	-0.053166
H 	-1.523918	-1.694219	0.014533
H 	1.015691	-1.730260	0.147655
