13
02/13/2019 22:15, XYZ structure generated by mol3D Class, molSimplify
O 	-1.998939	-0.714342	-0.163934
C 	-1.087589	0.420231	-0.470068
C 	0.071956	0.668919	0.601857
C 	1.198473	-0.393296	0.630505
C 	2.249245	-0.108952	-0.586378
H 	-2.965283	-0.371612	0.460834
H 	-0.625087	0.434148	-1.501066
H 	-1.696673	1.307644	-0.317658
H 	0.430996	1.733563	0.429902
H 	-0.442669	0.805495	1.583989
H 	1.083698	-1.419457	1.540621
H 	2.439703	0.897486	-1.527739
H 	2.918995	-0.978958	-0.515071
