9
02/13/2019 22:15, XYZ structure generated by mol3D Class, molSimplify
O 	1.735091	-0.653382	-0.152307
N 	1.282097	0.587561	0.170960
C 	-0.137586	0.560102	0.060074
N 	-0.827993	-0.488988	-0.076299
O 	-2.188099	-0.199169	0.007559
H 	3.304798	-0.430161	1.019676
H 	1.522013	1.181131	-0.702821
H 	-0.581041	1.538319	0.234693
H 	-2.379205	0.752808	-0.394414
