9
02/13/2019 22:15, XYZ structure generated by mol3D Class, molSimplify
O 	2.125761	0.058420	0.116643
C 	0.986161	-0.025944	-0.349233
C 	-0.270059	-0.024927	0.499773
C 	-1.452613	0.661216	-0.103181
O 	-1.224462	-0.740999	-0.102607
H 	0.855530	-0.344132	-1.366925
H 	-0.057194	0.027291	1.595894
H 	-2.200452	1.068418	0.526085
H 	-1.465501	1.014638	-1.159070
