14
03/25/2019 10:01, XYZ structure generated by mol3D Class, molSimplify
C 	-1.687689	-0.881548	0.391123
C 	-0.705254	0.210981	0.086399
C 	-0.986533	1.431746	-0.415431
C 	0.685205	-0.156830	-0.038975
N 	1.693282	0.737754	0.308462
N 	1.162190	-1.294652	-0.478316
H 	-2.022460	-0.725120	1.884129
H 	-1.037902	-2.274304	0.066457
H 	-2.749224	-0.636685	-0.476653
H 	-0.228251	2.193772	-0.573101
H 	-2.056360	1.787978	-0.549499
H 	1.312514	1.303717	1.076815
H 	2.562935	0.318052	0.652023
H 	0.434321	-1.891851	-0.852470
