11
02/11/2019 18:37, XYZ structure generated by mol3D Class, molSimplify
N 	-1.469796	-0.008023	-0.242253
C 	-0.220459	0.018091	0.477226
C 	0.935734	0.757719	-0.136608
C 	0.927949	-0.767136	-0.137824
H 	-2.015275	-0.813350	-0.011315
H 	-2.039876	0.787300	0.065014
H 	-0.239435	0.061545	1.580732
H 	0.708565	1.280682	-1.047434
H 	1.635142	1.240202	0.520634
H 	1.645410	-1.304147	0.488459
H 	0.759904	-1.244034	-1.092911
