14
02/13/2019 22:15, XYZ structure generated by mol3D Class, molSimplify
N 	2.005783	0.334390	0.147873
C 	0.970271	-0.640782	-0.190824
C 	-0.335135	-0.128588	0.460109
C 	-1.198104	0.891190	-0.167787
C 	-1.685362	-0.506921	-0.061670
H 	2.838493	0.134784	-0.414332
H 	1.662642	1.231531	-0.165014
H 	0.817337	-0.790413	-1.270329
H 	1.171611	-1.637388	0.177874
H 	-0.274619	-0.117521	1.536051
H 	-1.661584	1.705386	0.387653
H 	-0.951724	1.255154	-1.151833
H 	-2.512590	-0.764601	0.594956
H 	-1.780434	-1.021380	-1.061333
