11
02/13/2019 22:15, XYZ structure generated by mol3D Class, molSimplify
C 	2.446728	-0.104662	0.000102
C 	1.211048	0.382134	-0.002139
C 	-0.043160	-0.453590	0.001557
C 	-1.325544	0.353991	0.003262
O 	-2.424707	-0.141726	-0.002784
H 	3.313976	0.549094	-0.002979
H 	2.643273	-1.175634	0.003206
H 	1.070810	1.465052	-0.005585
H 	-0.082881	-1.117385	-0.872296
H 	-0.077848	-1.115877	0.876491
H 	-1.204025	1.460794	0.012222
