10
02/13/2019 22:15, XYZ structure generated by mol3D Class, molSimplify
N 	-1.880355	0.062189	-0.013721
N 	-0.677360	-0.583494	0.036308
C 	0.524786	0.145028	0.003569
N 	1.660638	-0.628535	0.001917
O 	0.553602	1.356421	-0.002460
H 	-2.433618	-0.112899	0.795878
H 	-2.381393	-0.152719	-0.863662
H 	-0.671230	-1.583012	-0.092488
H 	1.639062	-1.622611	-0.144407
H 	2.539833	-0.135727	-0.039266
