17
02/13/2019 22:15, XYZ structure generated by mol3D Class, molSimplify
C 	2.101523	-0.072304	-0.051606
C 	0.763781	-0.700423	0.207753
C 	-0.494838	0.018271	-0.324613
C 	-1.729509	-0.802777	0.019874
C 	-0.677577	1.498676	0.118036
H 	2.939634	-0.620129	0.406900
H 	2.230064	0.963881	0.254465
H 	2.269799	-0.099204	-1.138835
H 	0.835980	-1.726525	-0.255026
H 	0.651432	-0.834469	1.283498
H 	-0.395368	0.011827	-1.413432
H 	-1.939537	-0.769744	1.073396
H 	-1.528982	-1.851308	-0.242811
H 	-2.605175	-0.392107	-0.504424
H 	-1.652201	1.865496	-0.215065
H 	-0.587178	1.616050	1.221017
H 	0.103131	2.119107	-0.386060
