18
03/25/2019 10:01, XYZ structure generated by mol3D Class, molSimplify
C 	-1.282916	-1.253796	-0.000799
C 	-0.410706	-0.003925	0.001566
C 	-1.272372	1.254350	0.001176
C 	0.701737	-0.004416	-1.092865
C 	1.791550	0.010489	-0.002470
C 	0.698911	-0.003548	1.093831
H 	-1.930265	-1.275014	-0.889242
H 	-0.672243	-2.165642	-0.001055
H 	-1.916063	-1.280675	0.891001
H 	-1.917861	1.288216	-0.887826
H 	-1.920841	1.285944	0.886296
H 	-0.653158	2.164020	0.002344
H 	0.706442	-0.896109	-1.724870
H 	0.693570	0.873578	-1.743416
H 	2.443606	-0.868014	-0.000914
H 	2.429935	0.897293	-0.001847
H 	0.685381	0.882366	1.734794
H 	0.690499	-0.895886	1.729514
