10
02/13/2019 22:15, XYZ structure generated by mol3D Class, molSimplify
N 	-1.907720	-0.005627	0.066142
C 	-0.727141	-0.771632	-0.089736
C 	0.520977	0.120111	-0.036976
O 	1.775821	-0.424331	0.067699
O 	0.502502	1.299794	-0.036963
H 	-1.897223	0.469009	0.974035
H 	-1.968485	0.687440	-0.690059
H 	-0.749448	-1.415454	0.773447
H 	-0.752470	-1.374875	-1.058460
H 	1.697893	-1.375701	0.102936
