8
02/13/2019 22:15, XYZ structure generated by mol3D Class, molSimplify
C 	-0.163415	1.172027	-0.000379
C 	1.051383	0.434861	0.001158
N 	0.843761	-0.855576	-0.000902
O 	-0.523369	-1.009853	0.000707
C 	-1.104663	0.197511	-0.000651
H 	-0.303766	2.242021	0.001454
H 	2.070804	0.801153	-0.002476
H 	-2.186692	0.199114	0.000814
