9
02/13/2019 22:15, XYZ structure generated by mol3D Class, molSimplify
C 	0.911917	1.354674	-0.010239
C 	0.553906	-0.180807	-0.175343
O 	1.351547	-1.119894	0.107546
C 	-0.975715	-0.502315	-0.132187
O 	-1.930239	0.185858	0.147320
H 	0.907894	1.830284	-1.107594
H 	1.955747	1.417577	0.448513
H 	0.028846	1.896954	0.633195
H 	-1.094681	-1.568763	-0.235347
