11
02/13/2019 22:15, XYZ structure generated by mol3D Class, molSimplify
C 	-1.666763	-0.578397	0.269124
O 	-0.935901	0.314324	-0.558528
N 	0.069587	0.922872	0.186765
C 	1.304406	0.291924	0.148020
N 	1.450099	-0.930617	-0.156601
H 	-2.088635	-0.051647	1.134209
H 	-1.031677	-1.405711	0.601208
H 	-2.471555	-0.958506	-0.364084
H 	0.089739	1.903287	-0.065555
H 	2.094309	0.971773	0.495843
H 	2.426056	-1.196486	-0.045324
