10
03/25/2019 10:01, XYZ structure generated by mol3D Class, molSimplify
C 	1.009467	-0.531916	0.388293
O 	0.018563	-1.332341	-0.226573
N 	-1.171366	-0.549592	-0.207789
C 	-1.063550	0.718266	0.116623
N 	0.017080	1.418822	0.076923
O 	1.153749	0.605040	-0.360065
H 	0.765749	-0.324550	1.419642
H 	1.988455	-1.080765	0.239650
H 	-1.795530	-1.129314	0.394157
H 	-1.987110	1.233257	0.655998
