14
03/25/2019 10:01, XYZ structure generated by mol3D Class, molSimplify
O 	0.373100	1.544910	-0.373189
C 	-0.022900	0.515573	0.487168
C 	-1.481862	0.176658	0.317327
C 	-1.866407	-0.850168	-0.425856
C 	0.876336	-0.720465	0.416461
C 	2.051467	-0.749340	-0.195995
H 	0.312416	1.247103	-1.310986
H 	0.102368	0.946456	1.464689
H 	-2.152213	0.905018	0.813463
H 	-2.931401	-0.993053	-0.612493
H 	-1.141731	-1.565949	-0.967584
H 	0.513789	-1.611888	0.994625
H 	2.681545	-1.615586	-0.305910
H 	2.447356	0.156164	-0.702658
