11
02/13/2019 22:15, XYZ structure generated by mol3D Class, molSimplify
N 	2.276681	0.212088	-0.100510
N 	1.101253	-0.481405	-0.044289
C 	0.038670	0.205821	0.028157
C 	-1.267516	-0.400820	0.069243
C 	-2.408250	0.250364	-0.032133
H 	2.241225	1.030695	0.589186
H 	2.967600	-0.462495	0.162412
H 	0.039275	1.289313	0.024637
H 	-1.266764	-1.494762	0.126686
H 	-3.376012	-0.250691	-0.040727
H 	-2.524762	1.337365	-0.242932
