9
02/13/2019 22:15, XYZ structure generated by mol3D Class, molSimplify
C 	2.135187	-0.633526	0.053006
C 	1.167954	0.073680	-0.117764
C 	-0.024804	0.925276	0.037150
C 	-1.169795	0.138362	0.027156
C 	-2.126768	-0.626173	-0.007636
H 	3.075638	-1.130650	0.148277
H 	-0.108482	1.610097	-0.807621
H 	0.157393	1.587332	0.841834
H 	-2.907523	-1.354311	-0.086182
