14
03/25/2019 10:01, XYZ structure generated by mol3D Class, molSimplify
C 	2.025976	-0.791091	-0.023270
N 	1.319885	0.516349	0.152590
C 	-0.065508	0.574621	-0.013055
N 	-0.805161	1.539075	-0.049480
O 	-0.594418	-0.692975	0.030023
C 	-1.955684	-0.885018	-0.017838
H 	3.137489	-0.447920	-0.585153
H 	1.325677	-1.417522	-0.754092
H 	2.132491	-1.341660	0.994865
H 	1.865338	1.343407	-0.639007
H 	-0.462788	2.468257	-0.139750
H 	-2.455212	-0.877570	1.062471
H 	-2.422476	-0.196801	-0.713787
H 	-2.186005	-2.012836	-0.489785
