13
02/13/2019 22:15, XYZ structure generated by mol3D Class, molSimplify
C 	2.158742	0.433976	-0.147722
C 	1.041632	-0.557922	0.213466
C 	-0.325265	-0.274600	-0.467627
C 	-1.644917	-0.608647	0.349637
C 	-1.138985	0.884401	0.023140
H 	2.177611	1.527187	-1.342567
H 	3.115779	0.162057	0.439134
H 	1.118596	-1.632449	1.083052
H 	-0.471513	-0.440133	-1.599360
H 	-1.584024	-0.947680	1.395205
H 	-2.594299	-0.891456	-0.166558
H 	-1.616378	1.621019	-0.790625
H 	-0.709150	1.454637	0.852630
