13
02/13/2019 22:15, XYZ structure generated by mol3D Class, molSimplify
C 	-1.867647	0.081356	-0.408795
C 	-0.723501	-0.469125	0.563380
C 	0.638004	-0.178605	0.093085
C 	0.975409	1.296331	0.238344
O 	1.365170	-1.046244	-0.461122
H 	-1.697213	1.202867	-0.666919
H 	-2.848385	-0.036500	0.141390
H 	-1.772778	-0.560666	-1.431334
H 	-0.845639	-1.663223	0.726866
H 	-0.903429	0.081991	1.603905
H 	2.095197	1.483438	0.396183
H 	0.794911	1.717948	-0.787800
H 	0.230888	1.728386	1.005694
