10
03/25/2019 10:01, XYZ structure generated by mol3D Class, molSimplify
C 	1.070354	-0.584007	0.324904
O 	0.001631	-1.336415	-0.192212
N 	-1.200930	-0.573594	-0.177363
C 	-1.077899	0.743953	0.142498
N 	-0.015882	1.429662	0.010645
O 	1.209278	0.666086	-0.284458
H 	1.045772	-0.452052	1.352470
H 	1.909287	-1.271754	0.026943
H 	-2.202239	-1.202958	0.138160
H 	-2.079165	1.218478	0.391390
