10
02/13/2019 22:15, XYZ structure generated by mol3D Class, molSimplify
C 	-2.275447	0.060866	-0.164307
C 	-1.113836	-0.038203	0.134812
C 	0.277834	-0.145103	0.522035
C 	1.320418	0.731999	-0.073517
N 	1.216744	-0.662172	-0.478797
H 	-3.304147	0.149906	-0.437921
H 	0.433627	-0.440168	1.559066
H 	2.141464	1.042160	0.570347
H 	1.030423	1.450794	-0.834626
H 	1.927148	-1.224578	-0.018108
