15
03/25/2019 10:02, XYZ structure generated by mol3D Class, molSimplify
O 	1.881931	0.158478	-0.524970
C 	0.847240	0.154772	0.519399
C 	-0.188112	1.348317	0.014024
C 	-1.618134	0.398729	0.059099
N 	-1.087077	-0.936410	-0.540030
C 	-0.044545	-1.133139	0.462910
H 	2.522378	-0.606296	-0.323781
H 	1.349737	0.364883	1.511613
H 	-0.332195	2.284353	0.744356
H 	0.238031	1.637386	-1.153499
H 	-2.875716	0.900431	-0.507895
H 	-1.924797	0.207298	1.299969
H 	-0.520912	-0.732789	-1.492349
H 	0.296239	-2.144675	0.246084
H 	-0.518908	-1.251224	1.402062
