8
02/13/2019 22:15, XYZ structure generated by mol3D Class, molSimplify
C 	-2.069411	-0.106265	0.001602
N 	-0.852878	-0.462837	-0.002519
O 	-0.042579	0.686451	-0.000204
C 	1.287364	0.400706	-0.000748
O 	1.797272	-0.676991	0.001433
H 	-2.803701	-0.906249	-0.001530
H 	-2.385944	0.936903	0.008716
H 	1.815983	1.366626	-0.001864
