8
02/13/2019 22:15, XYZ structure generated by mol3D Class, molSimplify
C 	-0.167139	1.212022	0.022174
C 	1.087993	0.435631	0.003493
N 	0.788234	-0.852155	-0.048588
O 	-0.493213	-1.028849	0.040569
C 	-1.106388	0.186256	0.005598
H 	-0.400224	2.219437	-0.131773
H 	2.098114	0.722765	0.113304
H 	-2.195643	0.202671	-0.322563
