12
03/25/2019 10:01, XYZ structure generated by mol3D Class, molSimplify
C 	1.095992	1.355923	0.113394
C 	0.950696	-0.143306	0.047583
O 	1.745268	-0.871612	-0.500107
C 	-0.304374	-0.713101	0.715304
C 	-1.499732	-0.463387	-0.187136
O 	-2.037233	0.613869	-0.291360
H 	1.870639	1.679625	-0.586768
H 	0.143014	1.848354	-0.112695
H 	1.375872	1.647652	1.132180
H 	-0.157524	-1.777777	0.876452
H 	-0.484497	-0.199773	1.665495
H 	-1.837528	-1.331769	-0.784802
