19
03/25/2019 10:01, XYZ structure generated by mol3D Class, molSimplify
C 	-2.681932	-0.179518	0.295201
N 	-1.493935	0.319851	-0.437222
C 	-0.349053	-0.538535	-0.102561
C 	1.086727	0.015423	-0.400254
C 	2.072829	-1.003705	0.200018
C 	1.382030	1.423818	0.205064
H 	-3.627759	0.414661	0.152315
H 	-2.470026	-0.385323	1.401355
H 	-2.968597	-1.119914	-0.174573
H 	-1.262651	1.226941	-0.059959
H 	-0.377542	-0.817698	0.960610
H 	-0.396244	-1.479400	-0.591411
H 	1.148055	-0.007122	-1.492387
H 	2.127250	-1.083633	1.258043
H 	3.114310	-0.797074	-0.235353
H 	1.913969	-2.019739	-0.115131
H 	2.428947	1.674538	-0.012092
H 	0.728202	2.225503	-0.163592
H 	1.232297	1.452203	1.269704
