12
02/13/2019 22:15, XYZ structure generated by mol3D Class, molSimplify
O 	-2.148239	0.289247	0.098658
C 	-0.956620	-0.368368	-0.357039
C 	0.351720	0.024664	0.454942
C 	1.488080	0.792579	-0.221172
N 	1.542098	-0.678449	-0.083219
H 	-3.241508	-0.960702	0.673317
H 	-0.794573	0.053473	-1.476112
H 	-1.106749	-1.451231	-0.335489
H 	0.323053	0.254990	1.522928
H 	2.154430	1.392061	0.320018
H 	1.391672	1.009041	-1.318308
H 	2.288224	-0.810480	0.643652
