14
02/13/2019 22:15, XYZ structure generated by mol3D Class, molSimplify
N 	-1.929869	-0.127810	-0.045522
C 	-0.480491	0.073058	0.324599
C 	0.489772	-1.097665	-0.138284
C 	1.592394	-0.016495	0.043553
C 	0.464849	1.087441	-0.141533
H 	-1.942403	0.201544	-1.008222
H 	-2.655453	0.469333	0.518910
H 	-0.547018	-0.008142	1.374333
H 	0.600378	-1.935201	0.572222
H 	0.300585	-1.424854	-1.173095
H 	2.561547	-0.056707	-0.627324
H 	1.934739	0.099801	1.094630
H 	0.304494	1.220512	-1.194415
H 	0.461426	2.002760	0.493585
