12
03/25/2019 10:01, XYZ structure generated by mol3D Class, molSimplify
C 	0.026542	1.721058	-0.263612
C 	-0.022030	0.429897	0.501028
C 	1.232154	-0.311123	0.208023
C 	2.129426	-1.036746	-0.245672
C 	-1.199939	-0.360051	0.114014
C 	-2.153274	-1.056674	-0.183782
H 	0.080864	1.508485	-1.392308
H 	-0.864919	2.261122	0.044414
H 	0.848770	2.375896	0.076714
H 	-0.046457	0.668594	1.537774
H 	2.866076	-1.663471	-0.630311
H 	-3.037679	-1.526978	-0.641755
