18
03/25/2019 10:01, XYZ structure generated by mol3D Class, molSimplify
C 	3.003430	-0.569709	0.189539
C 	1.520749	0.422214	-0.167838
C 	0.254597	-0.377787	-0.010548
C 	-1.047944	0.027065	-0.004966
C 	-1.658221	1.497521	-0.153711
C 	-2.149987	-1.034286	0.115217
H 	3.137814	-1.664193	-0.336840
H 	3.904688	-0.151215	-0.071754
H 	3.124177	-0.904473	1.463153
H 	1.495039	0.677509	-1.467606
H 	1.270608	1.487306	0.391026
H 	0.363930	-1.484285	-0.158130
H 	-2.429144	1.541572	-0.963272
H 	-0.965104	2.289194	-0.421290
H 	-2.230026	1.914838	0.746819
H 	-2.599689	-1.356631	-1.159543
H 	-3.168291	-0.440517	0.875320
H 	-1.493516	-2.084944	0.585590
