8
02/11/2019 18:07, XYZ structure generated by mol3D Class, molSimplify
C 	0.763148	-0.000220	0.000066
C 	-0.762975	-0.000429	-0.000435
H 	1.159144	0.975780	-0.304766
H 	1.158339	-0.226696	0.996176
H 	1.158299	-0.744490	-0.690775
H 	-1.161583	0.752535	0.696866
H 	-1.156411	-0.973378	0.300901
H 	-1.159886	0.223856	-0.994319
