13
02/13/2019 22:15, XYZ structure generated by mol3D Class, molSimplify
C 	-1.939878	-0.553267	0.083433
O 	-1.252827	0.609779	-0.252664
C 	0.004467	0.545542	0.229649
O 	0.853987	-0.382372	-0.334607
C 	2.202729	-0.124619	0.049480
H 	-1.620412	-1.432062	-0.437922
H 	-1.987450	-0.742103	1.163357
H 	-3.000452	-0.393628	-0.157008
H 	0.004912	0.384473	1.341952
H 	0.450758	1.592211	0.035762
H 	2.692474	-1.019856	-0.325007
H 	2.302368	0.019528	1.189069
H 	2.586611	0.830164	-0.408711
