16
02/13/2019 22:15, XYZ structure generated by mol3D Class, molSimplify
C 	2.289576	-0.526447	-0.412057
C 	1.035068	0.043708	0.741428
C 	-0.021763	0.938514	-0.088973
C 	-1.451868	0.439982	0.384166
N 	-1.827109	-0.855992	-0.486603
H 	3.031399	-0.812991	0.570710
H 	2.847782	0.597089	-1.481836
H 	1.949137	-1.964205	-1.358709
H 	1.387863	1.008131	1.669824
H 	0.130736	-0.845878	1.370024
H 	0.126097	0.887342	-1.252555
H 	0.241955	2.005070	0.048633
H 	-2.208982	1.350223	0.275026
H 	-1.503120	0.195841	1.511781
H 	-2.724284	-1.246171	-0.163202
H 	-1.781793	-0.665540	-1.564706
