10
02/13/2019 22:15, XYZ structure generated by mol3D Class, molSimplify
C 	1.859698	-0.600312	0.017776
O 	1.218544	0.685122	0.011194
C 	-0.155211	0.655374	-0.015497
N 	-0.794949	-0.428626	-0.067382
O 	-2.179189	-0.103145	0.031597
H 	2.522440	-0.594111	0.847364
H 	1.076973	-1.330352	0.094545
H 	2.468436	-0.769766	-0.885619
H 	-0.528277	1.655404	0.081606
H 	-2.580825	-0.953129	0.092060
