18
03/25/2019 10:01, XYZ structure generated by mol3D Class, molSimplify
C 	2.455894	-0.087384	0.621461
C 	1.567677	0.144412	-0.656239
C 	0.241339	-0.581705	-0.491271
C 	-0.940342	-0.037360	-0.091405
C 	-1.258852	1.393552	0.226029
C 	-2.139818	-0.941691	0.174519
H 	2.522971	-1.208603	0.898241
H 	3.508742	0.266223	0.444395
H 	2.055606	0.450569	1.558389
H 	2.112838	-0.207150	-1.552140
H 	1.400669	1.217249	-0.822416
H 	0.308281	-1.650498	-0.557943
H 	-2.000807	1.755404	-0.471991
H 	-0.447744	2.149603	0.091217
H 	-1.686841	1.448690	1.237287
H 	-3.160676	-0.488337	-0.200894
H 	-2.278021	-1.020352	1.292748
H 	-1.963507	-1.993318	-0.235401
