12
02/13/2019 22:15, XYZ structure generated by mol3D Class, molSimplify
C 	-2.285951	-0.350157	-0.002134
C 	-1.079050	0.575900	-0.002305
N 	0.145426	-0.212619	0.004693
C 	1.390574	0.311725	0.006776
O 	2.422358	-0.331136	-0.006799
H 	-2.298552	-0.964124	0.905374
H 	-3.215733	0.232276	-0.017934
H 	-2.278570	-1.004656	-0.879852
H 	-1.112970	1.228488	0.879842
H 	-1.110859	1.222553	-0.883803
H 	0.084160	-1.220472	-0.007774
H 	1.384358	1.424588	0.018859
