8
02/13/2019 22:15, XYZ structure generated by mol3D Class, molSimplify
O 	1.253447	-0.824992	0.082239
N 	1.209215	0.520217	-0.066477
C 	0.033039	1.039156	-0.038625
C 	-1.283972	0.298248	0.100122
O 	-1.383438	-0.894628	-0.086620
H 	2.218860	-1.021346	-0.091747
H 	0.008228	2.116070	0.003746
H 	-2.141126	0.996746	0.348921
