8
02/11/2019 18:37, XYZ structure generated by mol3D Class, molSimplify
O 	1.289703	-0.614923	0.182215
C 	0.674593	0.651624	-0.175674
C 	-0.829621	0.524466	0.267550
O 	-1.292110	-0.601325	-0.174890
H 	0.498187	-1.166421	-0.764423
H 	0.603057	0.861069	-1.474400
H 	1.319479	1.674679	0.202464
H 	-1.610639	1.314542	0.825928
