12
02/13/2019 22:15, XYZ structure generated by mol3D Class, molSimplify
C 	-1.186502	-0.430971	0.260983
N 	0.010901	-1.206279	-0.246181
C 	1.108104	-0.348131	0.266311
C 	0.674296	1.048973	-0.228648
C 	-0.609568	1.091076	-0.054064
H 	-1.265714	-0.569758	1.379827
H 	-2.142729	-0.739707	-0.295349
H 	0.100819	-0.886459	-1.482576
H 	2.160658	-0.922427	-0.032673
H 	1.119404	-0.286583	1.535980
H 	1.297396	1.938455	-0.150908
H 	-1.258542	1.933433	-0.224969
