9
02/13/2019 22:15, XYZ structure generated by mol3D Class, molSimplify
N 	-1.829688	-0.695957	-0.009089
C 	-1.299459	0.462478	0.001948
N 	0.072914	0.625708	0.015617
C 	1.015792	-0.363594	0.010005
O 	2.207069	-0.137286	-0.012031
H 	-2.836719	-0.605533	-0.014524
H 	-1.849960	1.418184	-0.019922
H 	0.451897	1.569802	-0.072853
H 	0.598212	-1.386406	0.065187
