12
02/11/2019 18:37, XYZ structure generated by mol3D Class, molSimplify
C 	1.695154	-0.234012	-0.360719
C 	0.558308	0.457068	0.370532
C 	-0.718206	-0.239442	0.430502
C 	-1.829057	-0.014495	-0.356163
H 	1.336181	-0.359402	-1.368479
H 	2.009106	-1.139016	0.064159
H 	2.613177	0.409080	-0.429242
H 	0.728697	0.666752	1.410142
H 	0.375633	1.507597	0.003752
H 	-0.779266	-0.905793	1.346894
H 	-1.843961	0.706059	-1.301752
H 	-2.787247	-0.535234	-0.282099
