11
02/11/2019 18:37, XYZ structure generated by mol3D Class, molSimplify
C 	0.000025	1.076962	-0.075273
C 	-1.046019	-0.041257	0.093371
N 	0.000023	-1.026693	-0.238432
C 	1.045856	-0.041121	0.093266
H 	0.000489	1.884407	0.659997
H 	0.000142	1.496370	-1.083755
H 	-1.907327	-0.043631	-0.584834
H 	-1.411576	-0.103846	1.129927
H 	0.000746	-1.866075	0.332317
H 	1.411573	-0.103731	1.130118
H 	1.907285	-0.044700	-0.584202
