14
03/25/2019 10:01, XYZ structure generated by mol3D Class, molSimplify
C 	3.013902	0.133801	-0.086704
C 	1.564711	-0.034657	0.074675
C 	0.332892	-0.054461	0.074259
C 	-1.113188	-0.051951	0.376657
C 	-1.764132	1.144375	-0.273870
O 	-1.746121	-1.195604	-0.142450
H 	3.533882	-1.687735	0.103307
H 	3.502867	1.368026	1.539145
H 	3.289911	0.980688	-1.894402
H 	-1.253213	0.100729	1.502948
H 	-2.858887	1.117193	0.003343
H 	-1.732275	1.066880	-1.360411
H 	-1.304816	2.043978	0.099495
H 	-1.347055	-2.008337	0.319291
