13
02/13/2019 22:15, XYZ structure generated by mol3D Class, molSimplify
C 	-2.486259	-0.078741	0.087092
C 	-0.898305	-0.373831	-0.101219
C 	-0.063322	0.661318	-0.015721
C 	1.488594	0.569575	-0.192817
O 	1.982238	-0.722362	0.264841
H 	-2.936445	-1.544303	0.626505
H 	-2.740548	1.233005	1.114556
H 	-2.949198	0.392249	-1.513050
H 	-0.628333	-1.469636	-0.448926
H 	-0.429575	1.799039	0.297327
H 	1.882367	1.250074	0.636115
H 	1.816871	0.935602	-1.187053
H 	1.712772	-1.445759	-0.447563
