9
02/11/2019 18:37, XYZ structure generated by mol3D Class, molSimplify
C 	1.680659	0.137523	0.037380
O 	0.396836	-0.503733	-0.054500
N 	-0.591604	0.457180	-0.026605
C 	-1.771489	-0.057324	0.034111
H 	2.159729	-0.101530	1.006332
H 	1.548341	1.221475	-0.050461
H 	2.325449	-0.250297	-0.782923
H 	-1.956430	-1.131835	0.093733
H 	-2.567735	0.684011	0.116676
