16
02/13/2019 22:15, XYZ structure generated by mol3D Class, molSimplify
C 	-1.995981	0.046824	-0.067829
C 	-0.707199	-0.669294	0.215063
N 	0.483676	-0.050869	-0.372982
C 	1.702469	-0.713487	-0.004443
C 	0.553258	1.301827	0.063060
H 	-2.086310	1.077591	0.147315
H 	-2.769314	-0.551838	0.538198
H 	-2.299523	0.010866	-1.135510
H 	-0.706014	-0.667966	1.369422
H 	-1.034558	-1.711431	-0.160749
H 	2.547458	0.101786	-0.311740
H 	1.806904	-1.677473	-0.575765
H 	1.739125	-1.006421	1.092354
H 	-0.250953	1.918714	-0.395454
H 	1.554962	1.802895	-0.267575
H 	0.564555	1.441181	1.202263
