11
02/13/2019 22:15, XYZ structure generated by mol3D Class, molSimplify
C 	0.602573	1.349083	-0.106042
C 	0.435243	-0.089815	0.395635
O 	1.356274	-0.926522	-0.218721
C 	-0.930262	-0.633696	0.021274
O 	-1.903296	0.123181	-0.085837
H 	1.492114	1.904013	0.274901
H 	0.660764	1.214695	-1.210492
H 	-0.308462	1.970128	0.180822
H 	0.521641	-0.133197	1.540008
H 	2.211676	-0.623317	0.042899
H 	-0.910722	-1.770683	-0.138769
