11
02/13/2019 22:15, XYZ structure generated by mol3D Class, molSimplify
O 	-2.220170	0.128915	0.093323
C 	-0.944090	-0.563226	-0.079613
C 	0.068117	0.604470	-0.088178
C 	1.471795	0.224025	0.062499
C 	2.584054	-0.239649	0.016931
H 	-2.936713	-0.533368	-0.039619
H 	-0.923195	-1.211373	-1.035901
H 	-0.878613	-1.265347	0.770406
H 	-0.267807	1.169061	0.781696
H 	-0.044347	1.159826	-1.009441
H 	3.506299	-0.719506	0.103782
