11
02/13/2019 22:15, XYZ structure generated by mol3D Class, molSimplify
C 	0.930190	0.814080	0.025421
C 	0.929015	-0.745026	-0.005688
N 	-0.430818	-1.241404	-0.007091
C 	-1.182424	-0.179204	0.029653
N 	-0.508794	1.058789	-0.057149
H 	1.343975	1.182158	0.953985
H 	1.510830	1.205706	-0.829691
H 	1.521499	-1.140092	0.889523
H 	1.379047	-1.096173	-0.941231
H 	-2.286893	-0.181415	0.119319
H 	-0.951795	1.978587	0.112630
