10
02/13/2019 22:15, XYZ structure generated by mol3D Class, molSimplify
N 	2.254549	-0.101062	0.055752
N 	0.924591	-0.426163	0.106407
C 	0.140536	0.578612	0.009786
N 	-1.302221	0.564359	0.142671
O 	-1.972478	-0.678254	-0.180777
H 	2.739838	-0.778529	-0.698794
H 	2.285339	0.912704	-0.333987
H 	0.489321	1.594831	-0.047434
H 	-1.623406	1.269715	-0.544227
H 	-2.344142	-0.976951	0.787141
