14
02/13/2019 22:15, XYZ structure generated by mol3D Class, molSimplify
C 	-0.106375	1.809388	-0.057618
N 	0.470399	0.514795	0.017708
C 	-0.032877	-0.486896	1.074317
C 	-0.096647	-1.617957	-0.011041
C 	-0.009326	-0.407418	-0.987636
H 	0.055098	2.279575	-1.117087
H 	-1.263219	1.627447	0.041793
H 	0.267852	2.378559	0.823717
H 	-1.029558	-0.191617	1.383868
H 	0.694036	-0.569554	1.924157
H 	0.738489	-2.343507	-0.109761
H 	-1.092738	-2.094505	-0.183591
H 	-1.061871	-0.181730	-1.322686
H 	0.661133	-0.330790	-1.901036
