12
02/13/2019 22:15, XYZ structure generated by mol3D Class, molSimplify
N 	1.784021	-0.478426	0.233918
C 	0.619810	0.016439	-0.467528
C 	-0.052868	1.186806	-0.021775
C 	-0.564459	-0.117515	0.382605
O 	-1.862254	-0.420755	-0.028660
H 	2.633382	-0.177616	-0.378301
H 	1.813313	-1.501561	0.110367
H 	0.419900	-0.092555	-1.572110
H 	-0.771416	1.600886	-0.737611
H 	0.264975	1.946936	0.705925
H 	-0.329044	-0.156677	1.436789
H 	-1.781726	-1.306661	-0.705825
