12
02/13/2019 22:15, XYZ structure generated by mol3D Class, molSimplify
C 	1.706906	-0.677065	-0.073373
C 	0.396530	0.015184	-0.066691
C 	0.237734	1.507066	0.050087
N 	-0.579248	-0.799045	0.065925
O 	-1.850683	-0.418506	0.024556
H 	2.205752	-0.668833	-1.099679
H 	2.284949	-0.009682	0.732548
H 	1.591447	-1.841827	0.437251
H 	-0.863996	1.590946	0.805774
H 	0.230167	2.001101	-1.134893
H 	1.153767	2.124446	0.699933
H 	-2.035429	0.605059	-0.675314
