12
02/13/2019 22:15, XYZ structure generated by mol3D Class, molSimplify
C 	-1.488214	-0.792607	0.332137
N 	-0.437830	-0.001717	-0.622826
N 	-0.367244	1.294762	-0.072127
C 	0.887098	-0.557176	-0.286890
N 	1.804651	0.128474	0.423958
H 	-1.689860	-1.861884	-0.164332
H 	-2.592758	-0.158575	0.444616
H 	-0.981328	-0.842593	1.602672
H 	0.057023	1.487900	0.964501
H 	-1.457557	1.700021	-0.138971
H 	1.033092	-1.646478	-0.826506
H 	2.670006	-0.434859	0.420250
