16
03/25/2019 10:02, XYZ structure generated by mol3D Class, molSimplify
C 	1.875151	-0.016162	-0.423594
C 	0.822490	-0.097027	0.658344
C 	-0.418871	0.828047	0.662061
N 	-0.721865	1.495440	-0.553368
C 	-0.532556	-0.754212	0.626226
N 	-1.087783	-1.409715	-0.511591
H 	1.431367	0.466403	-1.339756
H 	2.689253	0.639809	-0.298820
H 	2.459725	-0.920192	-0.631312
H 	1.101150	-0.216608	1.718043
H 	-0.487159	1.428658	1.670258
H 	0.406102	1.254963	-1.423889
H 	-2.078387	0.770637	-0.882082
H 	-0.861061	-1.148465	1.588037
H 	-0.599263	-1.396031	-1.410182
H 	-2.192868	-1.632097	-0.562107
