12
02/11/2019 18:37, XYZ structure generated by mol3D Class, molSimplify
N 	1.866158	-0.059896	0.055161
C 	0.603637	0.559909	-0.141933
C 	-0.577855	-0.545682	-0.119702
N 	-1.846739	0.176655	0.032523
H 	2.245450	0.322769	1.461119
H 	1.829228	-1.407677	-0.136055
H 	0.686358	1.062481	-1.125580
H 	0.473534	1.310626	0.717222
H 	-0.137940	-1.330753	0.703830
H 	-0.562241	-0.961588	-1.192426
H 	-2.704349	-0.423870	-0.137538
H 	-1.908072	0.618660	0.946098
