9
02/13/2019 22:15, XYZ structure generated by mol3D Class, molSimplify
C 	-0.683376	0.996401	0.002010
C 	-1.096400	-0.355844	-0.008869
N 	-0.060990	-1.203056	0.013015
N 	1.001611	-0.419280	-0.017662
C 	0.689947	0.929058	0.021241
H 	-1.384155	1.802300	-0.118535
H 	-2.089606	-0.787688	0.045164
H 	1.928956	-0.781274	-0.055035
H 	1.480993	1.663886	0.021734
