11
02/13/2019 22:15, XYZ structure generated by mol3D Class, molSimplify
N 	1.900210	-0.162474	-0.037978
N 	0.610545	-0.664914	0.056816
C 	-0.525316	0.138089	0.007124
N 	-1.697539	-0.572368	-0.011198
N 	-0.491021	1.401303	0.003720
H 	2.011171	0.361253	-0.955863
H 	2.267497	0.378356	0.772306
H 	0.429167	-1.683632	0.062489
H 	-1.635756	-1.557901	-0.046918
H 	-2.597382	-0.208168	-0.283238
H 	0.492898	1.744629	0.208541
