16
03/25/2019 10:01, XYZ structure generated by mol3D Class, molSimplify
C 	-1.659247	-1.067038	-0.482231
C 	-1.056799	-0.184583	0.617386
C 	0.073384	0.683614	0.113656
C 	-0.095216	1.989393	-0.112378
C 	1.391543	0.072746	-0.159206
C 	1.744217	-1.188227	0.093594
H 	-2.465849	-1.693119	-0.079886
H 	-0.906420	-1.725562	-0.924743
H 	-2.074033	-0.443674	-1.282653
H 	-1.838513	0.461920	1.034036
H 	-0.701466	-0.814973	1.440767
H 	0.712278	2.609505	-0.489155
H 	-1.041927	2.490070	0.084346
H 	2.130460	0.740079	-0.601021
H 	2.744431	-1.544256	-0.133558
H 	1.056234	-1.913182	0.529157
