12
03/25/2019 10:01, XYZ structure generated by mol3D Class, molSimplify
C 	2.958833	0.269634	-0.036320
C 	1.528571	-0.119184	0.051714
C 	0.361244	-0.487833	0.065829
C 	-0.999512	-0.972644	0.081468
N 	-2.064011	-0.260846	-0.036812
N 	-1.948202	1.069229	-0.165823
H 	2.804853	1.714793	-0.043359
H 	3.459717	-0.275174	-1.378406
H 	3.716113	-0.365914	1.161524
H 	-1.090128	-2.036007	0.119273
H 	-2.756062	1.535418	0.280594
H 	-1.102806	1.506579	0.193451
