9
02/13/2019 22:15, XYZ structure generated by mol3D Class, molSimplify
C 	1.823207	-0.549002	0.141529
N 	1.199082	0.525929	-0.374848
N 	-0.017807	0.676014	0.398025
C 	-0.953743	-0.316278	-0.148097
O 	-2.108694	-0.202859	-0.037668
H 	2.695199	-0.917402	-0.575987
H 	1.560977	-1.048563	1.420538
H 	-0.440569	1.639801	0.236136
H 	-0.450084	-1.157027	-0.823045
