13
02/13/2019 22:15, XYZ structure generated by mol3D Class, molSimplify
C 	-2.250103	-0.143114	0.027866
N 	-0.815445	-0.343824	0.025584
C 	0.066941	0.699317	-0.049984
N 	1.332358	0.733172	-0.029281
C 	1.967345	-0.558999	0.041727
H 	-2.754601	-1.127716	-0.274390
H 	-2.597258	0.615029	-0.698538
H 	-2.577380	0.115785	1.083117
H 	-0.404035	-1.285597	-0.355869
H 	-0.458047	1.679520	-0.100832
H 	1.829513	-1.075363	-0.888813
H 	1.602602	-1.175285	0.889447
H 	3.042161	-0.395647	0.163734
