16
03/25/2019 10:02, XYZ structure generated by mol3D Class, molSimplify
C 	-2.265471	-0.022202	-0.039439
C 	-0.769687	-0.061821	0.017920
C 	0.023991	-1.146553	0.016308
C 	1.515935	-0.836893	0.031414
C 	1.530904	0.706845	-0.085432
C 	0.052866	1.187414	0.067432
H 	-2.620338	-0.458421	-1.006020
H 	-2.766361	-0.603154	0.774549
H 	-2.611672	1.034133	0.030635
H 	-0.404707	-2.147810	-0.025297
H 	2.074411	-1.340584	-0.781382
H 	2.022253	-1.258976	0.956211
H 	1.935558	1.037899	-1.054135
H 	2.169976	1.144797	0.712235
H 	-0.124204	1.698684	1.016816
H 	-0.190765	1.915189	-0.721279
