9
02/13/2019 22:15, XYZ structure generated by mol3D Class, molSimplify
O 	1.845274	-0.008294	0.026418
C 	0.649452	-0.009835	-0.043611
C 	-0.460385	1.060392	-0.009645
O 	-1.415322	0.002700	0.020646
C 	-0.427198	-1.046793	-0.005844
H 	-0.559395	1.710091	-0.905738
H 	-0.477722	1.677234	0.883186
H 	-0.500933	-1.683496	0.879144
H 	-0.499738	-1.659875	-0.899855
