13
02/13/2019 22:15, XYZ structure generated by mol3D Class, molSimplify
C 	1.996974	-0.629683	0.071841
O 	1.318574	0.657815	-0.089164
C 	-0.034259	0.678926	0.030894
C 	-0.891689	-0.292588	-0.012564
C 	-2.400101	-0.173464	0.019458
H 	1.739271	-1.318383	-0.740922
H 	1.862949	-1.060108	1.098521
H 	3.115522	-0.377601	0.045282
H 	-0.286118	1.710555	0.113274
H 	-0.525502	-1.298259	-0.450486
H 	-2.727096	0.696339	-0.656588
H 	-2.856796	-1.172861	-0.336584
H 	-2.647080	0.093818	1.037234
