12
03/25/2019 10:01, XYZ structure generated by mol3D Class, molSimplify
C 	-0.873917	-0.877948	0.362554
C 	-1.331600	0.422520	-0.222446
N 	-0.307325	1.431632	0.062797
C 	0.902138	0.965753	0.106217
N 	1.364591	-0.332790	-0.161731
O 	0.333217	-1.283755	-0.267918
H 	-0.646406	-0.783802	1.456862
H 	-1.569293	-1.653991	0.152647
H 	-2.326860	0.780521	0.124916
H 	-1.397228	0.261411	-1.355918
H 	1.775250	1.613065	0.292881
H 	2.019216	-0.706501	0.528857
