11
02/13/2019 22:15, XYZ structure generated by mol3D Class, molSimplify
C 	-0.723664	1.366527	0.035527
N 	-0.316031	-0.026802	-0.148243
O 	-1.396259	-0.876521	0.193848
C 	0.853157	-0.607869	-0.085736
N 	1.883355	0.082849	0.021609
H 	0.353647	1.887877	-0.048334
H 	-1.439054	1.656539	-1.029149
H 	-1.133033	1.720464	1.072611
H 	-2.004540	-0.796976	-0.598213
H 	0.774795	-1.653777	-0.068746
H 	2.741830	-0.531772	-0.043679
