15
02/13/2019 22:15, XYZ structure generated by mol3D Class, molSimplify
C 	-1.692065	-0.840897	0.052192
C 	-0.487440	0.002686	-0.380912
C 	-0.468602	1.431916	0.120853
C 	0.684717	-0.634723	0.193496
O 	1.937731	0.062740	-0.132668
H 	-1.572723	-1.858889	-0.351761
H 	-1.738009	-0.875507	1.147188
H 	-2.615131	-0.428232	-0.199038
H 	-0.301502	0.017016	-1.509184
H 	-0.668041	1.615643	1.218588
H 	-1.146276	2.084347	-0.434224
H 	0.491465	1.840090	-0.055133
H 	0.746701	-1.593017	-0.249116
H 	0.564388	-0.735545	1.263419
H 	2.726834	-0.311984	0.310319
