12
03/25/2019 10:02, XYZ structure generated by mol3D Class, molSimplify
O 	1.314175	-1.272928	0.356567
C 	1.602866	-0.295558	-0.322390
C 	0.852010	1.071078	-0.307026
C 	-0.464233	1.033561	0.434415
C 	-1.504052	0.059332	0.048413
C 	-2.294006	-0.839262	-0.172471
H 	2.451422	-0.291783	-1.035771
H 	0.757289	1.453525	-1.409059
H 	1.442007	1.912295	0.166511
H 	-0.255274	0.886135	1.589216
H 	-0.938901	2.055140	0.353797
H 	-2.935533	-1.745255	-0.354215
