20
03/25/2019 10:01, XYZ structure generated by mol3D Class, molSimplify
C 	-2.867094	-0.201257	0.153184
C 	-1.580338	0.163491	-0.639008
C 	-0.299287	-0.288741	0.377793
C 	1.076899	0.049242	-0.236581
C 	2.178619	-1.098649	-0.229609
C 	1.526088	1.347494	0.475600
H 	-3.769726	0.064371	-0.864643
H 	-2.825834	-1.658705	0.695805
H 	-3.164748	0.621692	1.354228
H 	-1.550289	1.481613	-0.934212
H 	-1.692624	-0.382945	-1.858160
H 	-0.350247	0.379176	1.549972
H 	-0.387723	-1.560421	0.668113
H 	0.744832	0.298673	-1.287261
H 	3.022075	-0.778383	-1.019566
H 	1.707660	-2.005291	-0.628636
H 	2.755909	-1.014359	0.841790
H 	0.653450	2.202930	0.954058
H 	2.378658	1.003088	1.597864
H 	2.279260	1.644188	-0.452731
