10
02/11/2019 18:37, XYZ structure generated by mol3D Class, molSimplify
O 	1.482885	-0.118531	-0.127448
C 	0.257779	-0.009432	0.471036
C 	-0.859556	0.749272	-0.141252
C 	-0.970490	-0.763234	-0.153612
H 	1.537461	1.028060	-0.973177
H 	0.414778	-0.025336	1.586732
H 	-0.596221	1.429143	-0.912044
H 	-1.466976	1.257395	0.596409
H 	-1.767532	-1.188031	0.397852
H 	-0.648082	-1.124190	-1.095474
