13
02/13/2019 22:15, XYZ structure generated by mol3D Class, molSimplify
C 	-1.941443	0.625255	-0.000287
N 	-1.233304	-0.620686	0.000378
N 	0.103042	-0.741432	-0.000498
C 	0.841613	0.302709	0.001307
C 	2.339866	0.154164	-0.000549
H 	-3.013248	0.414958	-0.003605
H 	-1.702247	1.229949	-0.888101
H 	-1.710092	1.230536	0.889827
H 	-1.723983	-1.495525	-0.000223
H 	0.426190	1.315585	0.002034
H 	2.687050	-0.391350	0.884030
H 	2.685244	-0.393818	-0.883964
H 	2.824385	1.135342	-0.003952
