10
02/13/2019 22:15, XYZ structure generated by mol3D Class, molSimplify
N 	0.025779	0.083466	2.410984
C 	0.105535	-0.318225	1.236734
N 	-0.136490	0.321786	0.003125
C 	-0.098995	-0.372068	-1.245120
N 	0.106259	0.093578	-2.415248
H 	-0.100791	1.140652	2.650948
H 	0.140318	-1.451310	1.050375
H 	-0.013903	1.325634	0.036354
H 	-0.269219	-1.488747	-1.209573
H 	0.227580	1.095814	-2.412430
