18
03/25/2019 10:02, XYZ structure generated by mol3D Class, molSimplify
C 	2.078844	-0.356021	0.384542
C 	0.973540	-0.351636	-0.742226
C 	-0.369594	0.219507	-0.133925
C 	-0.501810	1.689230	-0.013942
C 	-0.958835	-0.679804	0.902711
C 	-1.538342	-0.648511	-0.460030
H 	1.501313	-0.599867	1.374293
H 	2.996391	-1.063132	0.211293
H 	2.479909	0.694113	0.542514
H 	0.727334	-1.370759	-1.079448
H 	1.374190	0.210729	-1.695185
H 	-1.433315	2.023746	0.511460
H 	0.447388	2.153387	0.427600
H 	-0.490944	2.112131	-1.008789
H 	-1.552629	-0.252954	1.710156
H 	-0.360662	-1.608212	1.155311
H 	-2.485611	-0.188714	-0.708553
H 	-1.268850	-1.498804	-1.070970
