11
02/13/2019 22:15, XYZ structure generated by mol3D Class, molSimplify
C 	1.686543	0.566742	-0.332689
C 	0.902103	-0.401849	0.532184
O 	-0.218386	-0.953044	-0.187974
C 	-1.310702	-0.187628	-0.245073
O 	-1.439663	0.903498	0.247311
H 	2.574075	0.913333	0.205547
H 	2.009723	0.081475	-1.258238
H 	1.073231	1.436986	-0.581473
H 	1.500427	-1.273250	0.807505
H 	0.533226	0.084587	1.439446
H 	-2.091682	-0.712753	-0.815433
