13
02/13/2019 22:15, XYZ structure generated by mol3D Class, molSimplify
C 	1.247399	-1.016455	-0.288968
C 	0.574317	0.130670	0.465376
O 	0.663843	1.403888	-0.169203
C 	-0.880264	-0.182784	0.687525
O 	-1.454523	-0.225776	-0.613953
H 	1.182551	-1.906922	0.324460
H 	0.757960	-1.143806	-1.249709
H 	2.259515	-0.774334	-0.445854
H 	1.050476	0.250936	1.443441
H 	0.103782	1.419838	-0.950376
H 	-0.969716	-1.140438	1.192805
H 	-1.298743	0.606626	1.327895
H 	-2.444603	-0.380691	-0.577835
