12
02/13/2019 22:15, XYZ structure generated by mol3D Class, molSimplify
N 	1.983349	-0.364738	-0.110224
C 	0.933901	0.575303	-0.074874
C 	-0.352036	0.069644	0.480381
C 	-1.710945	0.382116	-0.075074
O 	-1.170520	-0.865714	-0.275293
H 	2.257503	-0.523763	0.845573
H 	2.831614	0.203789	-0.499566
H 	0.652586	1.035187	-1.090028
H 	1.184663	1.479077	0.680877
H 	-0.299887	-0.173235	1.469873
H 	-2.499417	0.458327	0.648072
H 	-1.881101	1.045642	-0.950596
