11
02/13/2019 22:15, XYZ structure generated by mol3D Class, molSimplify
C 	-2.347769	0.233832	0.003388
C 	-1.168791	-0.372112	-0.001556
O 	-0.000572	0.331443	-0.004958
C 	1.168707	-0.371473	-0.000054
C 	2.348275	0.233764	0.002745
H 	-3.256068	-0.355531	0.005503
H 	-2.424314	1.316181	0.007568
H 	-1.057615	-1.456859	-0.002232
H 	1.056859	-1.456245	0.006034
H 	2.428150	1.314976	0.001484
H 	3.257024	-0.355580	0.006469
