8
02/13/2019 22:15, XYZ structure generated by mol3D Class, molSimplify
O 	1.354260	-0.971025	0.034585
C 	1.326124	0.249552	-0.056782
C 	0.042233	0.949543	0.007353
C 	-1.116561	0.070477	0.090106
N 	-2.092110	-0.568837	-0.066071
H 	2.251815	0.846255	-0.202943
H 	0.130563	1.646486	0.930739
H 	0.003644	1.643283	-0.843009
