10
02/13/2019 22:15, XYZ structure generated by mol3D Class, molSimplify
C 	-2.166186	-0.131524	-0.127426
N 	-0.919529	-0.431872	0.137102
N 	-0.048794	0.562093	0.128016
C 	1.366105	0.429931	-0.050312
N 	2.008451	-0.597798	-0.064353
H 	-2.930066	-0.920174	0.010523
H 	-2.428259	0.982450	-0.328212
H 	-0.280837	1.531125	-0.413251
H 	1.788582	1.477415	0.019950
H 	1.472341	-1.451688	0.037798
