11
02/13/2019 22:15, XYZ structure generated by mol3D Class, molSimplify
O 	2.162944	0.000437	-0.129700
C 	1.045707	0.000101	0.329427
C 	-0.199072	-0.000678	-0.471817
C 	-1.388445	0.742931	0.095653
C 	-1.389207	-0.743045	0.095193
H 	0.879143	-0.000012	1.433303
H 	-0.051561	-0.001313	-1.547726
H 	-2.018789	1.271106	-0.612998
H 	-1.250355	1.255612	1.044291
H 	-1.253690	-1.256245	1.043833
H 	-2.021361	-1.267784	-0.613611
