12
03/25/2019 10:02, XYZ structure generated by mol3D Class, molSimplify
N 	1.870523	-0.501481	-0.017153
N 	0.604100	0.048070	0.054699
C 	0.151978	1.416782	-0.006427
C 	-1.296198	0.877071	-0.001758
C 	-0.651056	-0.517808	0.012463
O 	-1.048579	-1.654106	-0.019457
H 	2.408696	-0.128767	0.767146
H 	2.295868	-0.202503	-0.882321
H 	0.422003	2.014347	0.847255
H 	0.447835	1.925760	-0.947810
H 	-1.841770	1.032507	-0.935726
H 	-1.885839	1.150917	0.887638
