8
02/13/2019 22:15, XYZ structure generated by mol3D Class, molSimplify
O 	-2.145490	0.052470	0.127787
N 	-0.866125	-0.487889	-0.047857
C 	-0.011401	0.501162	-0.086351
C 	1.328102	0.194132	-0.074733
C 	2.461040	-0.250464	0.091448
H 	-2.714164	-0.812546	-0.600619
H 	-0.229100	1.508590	-0.085307
H 	3.538304	-0.456195	0.151947
