11
02/13/2019 22:15, XYZ structure generated by mol3D Class, molSimplify
O 	2.210492	-0.174138	-0.083931
C 	1.024215	0.110295	0.261009
C 	-0.191796	0.170293	-0.487034
C 	-1.511954	0.696254	0.132266
C 	-1.276451	-0.770298	0.068956
H 	0.781554	0.283166	1.321286
H 	-0.433015	0.137817	-1.575622
H 	-2.139947	1.190835	-0.663193
H 	-1.549730	1.191713	1.142913
H 	-1.016400	-1.009125	1.192139
H 	-1.816399	-1.489940	-0.524532
