12
02/13/2019 22:15, XYZ structure generated by mol3D Class, molSimplify
C 	-1.909296	0.166230	-0.075049
N 	-0.645029	-0.663249	0.194404
C 	0.640359	-0.218316	-0.059814
C 	0.735855	1.318618	0.006308
O 	1.594660	-0.928494	-0.068695
H 	-1.679718	1.265082	0.322891
H 	-2.903701	-0.214466	0.593683
H 	-2.136544	0.046719	-1.199642
H 	-0.731176	-1.665229	0.129146
H 	0.421607	1.732709	-0.997191
H 	0.076415	1.699803	0.881780
H 	1.742257	1.696242	0.189160
