15
03/25/2019 10:01, XYZ structure generated by mol3D Class, molSimplify
C 	1.958398	-0.460523	-0.472781
C 	0.523145	0.086873	0.064758
N 	0.519246	1.512764	0.400793
C 	-0.165280	-0.852551	0.922273
C 	-0.828448	-0.608598	-0.371191
O 	-2.028362	0.171507	-0.352038
H 	2.011232	-1.545175	-0.742352
H 	2.637688	-0.317802	0.347067
H 	2.202322	0.184342	-1.285079
H 	0.593553	2.067185	-0.442849
H 	-0.348474	1.646849	0.848590
H 	-0.770850	-0.455589	1.782663
H 	0.385587	-1.745302	1.230045
H 	-0.772121	-1.431715	-1.174902
H 	-2.200294	0.462458	-1.287144
