14
02/13/2019 22:15, XYZ structure generated by mol3D Class, molSimplify
C 	2.362226	-0.356872	-0.067181
C 	1.110986	0.440737	-0.241617
C 	0.059402	0.102149	0.471516
C 	-1.355945	0.524343	0.263423
N 	-2.175249	-0.478394	-0.346670
H 	2.256027	-1.139078	0.630146
H 	2.502515	-0.969290	-1.078854
H 	3.383548	0.090390	0.225493
H 	1.137890	1.191839	-1.074966
H 	0.232028	-0.641277	1.336775
H 	-1.803140	0.628591	1.328668
H 	-1.415467	1.467252	-0.351344
H 	-2.315042	-1.418782	0.114734
H 	-1.961581	-0.424696	-1.426040
