14
02/13/2019 22:15, XYZ structure generated by mol3D Class, molSimplify
C 	1.566963	-0.787749	-0.100718
C 	0.740733	0.330589	0.412807
C 	-0.181720	1.219802	-0.414566
C 	-0.776722	0.288894	0.474286
N 	-1.317694	-0.830192	-0.298488
H 	2.713269	-1.000478	0.958105
H 	2.014494	-0.268818	-1.491021
H 	0.662467	-1.881783	-0.309013
H 	1.060126	0.948370	1.300564
H 	-0.244045	2.299772	-0.317191
H 	-0.073699	0.950784	-1.396374
H 	-1.316720	0.507761	1.476515
H 	-1.557636	-1.566504	0.405976
H 	-2.172798	-0.461570	-0.798711
