13
02/13/2019 22:15, XYZ structure generated by mol3D Class, molSimplify
C 	1.828503	-0.005722	0.234678
C 	0.469670	0.036651	-0.482941
C 	-0.572293	1.071233	0.024567
C 	-1.496094	-0.160488	0.204457
O 	-0.382340	-1.053151	-0.056319
H 	1.618364	0.302092	1.306298
H 	2.559523	0.760086	-0.249298
H 	2.274843	-1.009916	0.166257
H 	0.564130	-0.074616	-1.581174
H 	-0.255110	1.536216	0.959205
H 	-0.866516	1.863125	-0.686569
H 	-1.963472	-0.368617	1.142082
H 	-2.273164	-0.266117	-0.569669
