9
03/25/2019 10:01, XYZ structure generated by mol3D Class, molSimplify
N 	-0.780740	0.881139	-0.371257
C 	-1.231449	-0.335677	0.116982
N 	-0.492119	-1.337428	0.228745
O 	0.839709	-0.887228	-0.354347
C 	1.278983	0.298067	0.124429
N 	0.482583	1.286367	0.240224
H 	-1.568233	1.637490	-0.347198
H 	-2.217340	-0.473774	0.565687
H 	2.303375	0.280118	0.455436
