14
02/13/2019 22:15, XYZ structure generated by mol3D Class, molSimplify
C 	-2.093215	0.403295	-0.045707
C 	-0.895543	-0.636852	-0.101237
C 	0.403232	-0.230288	0.447122
C 	1.224218	0.936000	-0.051695
N 	1.652503	-0.603291	-0.301809
H 	-2.359689	0.652176	0.985174
H 	-2.989663	-0.133362	-0.510411
H 	-1.788262	1.337832	-0.575278
H 	-1.183186	-1.618919	0.326928
H 	-0.611335	-0.763841	-1.210739
H 	0.574570	-0.321349	1.478985
H 	1.820358	1.501731	0.668658
H 	0.842900	1.454744	-0.993575
H 	2.359374	-0.679402	0.472906
