8
02/11/2019 18:37, XYZ structure generated by mol3D Class, molSimplify
O 	1.317153	-0.511932	-0.099021
N 	0.614477	0.636086	0.054485
C 	-0.787138	0.458649	0.072191
N 	-1.504972	-0.554319	-0.044439
H 	1.627595	-0.670256	0.789920
H 	0.803157	1.388889	-0.569160
H 	-1.299337	1.479550	0.210777
H 	-0.860727	-1.398375	-0.058597
