8
02/13/2019 22:15, XYZ structure generated by mol3D Class, molSimplify
C 	-2.492878	-0.058927	0.027954
C 	-1.069085	0.047116	-0.086369
C 	0.176456	0.105330	0.039957
C 	1.598295	0.066329	-0.013448
N 	2.764620	-0.107594	0.013809
H 	-3.064498	0.769379	-0.378989
H 	-2.765881	-0.882445	-0.527473
H 	-2.837214	-0.295196	1.094554
