15
02/13/2019 22:15, XYZ structure generated by mol3D Class, molSimplify
N 	-2.563762	-0.165625	-0.046123
C 	-1.204833	0.454740	0.305691
C 	0.014167	-0.377624	-0.134394
C 	1.230505	0.461557	-0.315555
N 	2.421979	-0.382656	0.132176
H 	-2.738667	0.002120	-1.376865
H 	-2.455893	-1.625832	0.113887
H 	-1.079684	0.600599	1.513160
H 	-1.191494	1.582581	-0.136178
H 	-0.140360	-0.980210	-1.005619
H 	0.263653	-1.047194	0.726660
H 	1.273217	1.556193	0.310569
H 	1.027786	0.904360	-1.403882
H 	3.229765	0.241651	-0.355326
H 	2.663038	-0.225577	1.518067
