10
02/13/2019 22:15, XYZ structure generated by mol3D Class, molSimplify
C 	-2.078009	-0.228975	-0.064652
N 	-0.861025	-0.382029	0.045460
N 	-0.024816	0.700746	0.200874
C 	1.310599	0.456130	-0.095714
N 	1.892952	-0.691132	-0.016844
H 	-2.704997	-1.100258	-0.102654
H 	-2.572565	0.787952	-0.419511
H 	-0.311976	1.663765	-0.462281
H 	1.858382	1.340327	-0.276878
H 	1.422655	-1.546499	-0.017837
