13
02/13/2019 22:15, XYZ structure generated by mol3D Class, molSimplify
C 	1.776815	0.777133	0.138157
C 	1.225876	-0.587775	-0.185705
N 	-0.198377	-0.743357	0.240438
N 	-1.055631	0.004450	-0.519399
C 	-2.101191	0.391866	0.110701
H 	2.000604	0.840971	1.254294
H 	2.730358	1.007010	-0.399858
H 	1.079056	1.620158	-0.114581
H 	1.859149	-1.467205	0.144621
H 	1.111541	-0.769276	-1.271074
H 	-0.326583	-0.609042	1.263566
H 	-2.199059	0.281400	1.226272
H 	-2.865511	0.894235	-0.465334
