11
02/13/2019 22:15, XYZ structure generated by mol3D Class, molSimplify
C 	1.787405	-0.546794	0.015330
C 	0.405016	0.150484	-0.099756
N 	0.175625	1.445893	-0.042793
N 	-0.605971	-0.759036	-0.003849
O 	-1.937024	-0.192969	0.014318
H 	1.728540	-1.654312	1.069656
H 	2.092836	-1.131918	-1.321823
H 	2.738103	0.667820	0.373857
H 	1.086980	1.955233	-0.179081
H 	-0.441504	-1.499988	0.660825
H 	-1.664696	0.745161	0.086400
