12
03/25/2019 10:01, XYZ structure generated by mol3D Class, molSimplify
N 	2.847327	0.167396	-0.165111
N 	1.618145	-0.486681	-0.027561
C 	0.590196	0.251268	0.048968
N 	-0.670640	-0.311276	0.164070
N 	-1.750009	0.481893	0.007756
C 	-2.890763	-0.075235	-0.090662
H 	2.891247	1.013525	0.400945
H 	3.560681	-0.468032	0.172749
H 	0.583583	1.346770	0.048876
H 	-0.749212	-1.316691	0.034570
H 	-3.758801	0.566063	-0.191521
H 	-3.034494	-1.160023	-0.073522
