12
02/13/2019 22:15, XYZ structure generated by mol3D Class, molSimplify
C 	-1.182114	-0.354189	0.112162
N 	0.000221	-1.218457	-0.054024
C 	1.181839	-0.354199	0.112560
C 	0.664153	1.057607	-0.062492
C 	-0.663986	1.057565	-0.062055
H 	-1.614756	-0.480252	1.115760
H 	-1.967021	-0.627655	-0.604427
H 	0.000541	-1.555686	-1.009714
H 	1.964564	-0.627201	-0.604399
H 	1.614687	-0.480730	1.115535
H 	1.307382	1.931072	-0.117588
H 	-1.307187	1.930838	-0.116324
