10
03/25/2019 10:02, XYZ structure generated by mol3D Class, molSimplify
O 	-2.039289	0.001245	-0.002117
C 	-0.848046	-0.002484	-0.001248
O 	-0.079058	1.110044	0.001742
C 	1.300459	0.771916	-0.000368
C 	1.299409	-0.770560	-0.003068
O 	-0.079683	-1.110892	0.004384
H 	1.768803	1.202288	-0.889364
H 	1.766908	1.198835	0.892967
H 	1.763945	-1.196537	-0.895861
H 	1.772779	-1.197463	0.884407
