13
02/13/2019 22:15, XYZ structure generated by mol3D Class, molSimplify
N 	-1.978343	0.395829	0.090542
C 	-0.958442	-0.516217	-0.342382
C 	0.324571	-0.142539	0.413592
C 	1.278956	0.816581	-0.203570
N 	1.649135	-0.587695	-0.084626
H 	-2.918523	0.077241	-0.201885
H 	-2.029553	0.453765	1.161741
H 	-1.206557	-1.602540	-0.152004
H 	-0.819609	-0.298730	-1.415642
H 	0.281981	-0.120370	1.524403
H 	1.032586	1.158071	-1.214003
H 	1.835805	1.615162	0.356812
H 	2.170905	-0.719501	0.792580
