11
02/11/2019 18:37, XYZ structure generated by mol3D Class, molSimplify
N 	-1.459700	-0.000264	-0.240831
C 	-0.214690	0.000501	0.482643
C 	0.925484	0.751824	-0.138878
C 	0.924727	-0.751634	-0.138577
H 	-2.008976	-0.818525	0.004957
H 	-2.009760	0.816342	0.007136
H 	-0.248313	-0.001794	1.575541
H 	0.716851	1.248118	-1.081039
H 	1.620982	1.270605	0.514894
H 	1.619726	-1.271674	0.514795
H 	0.715373	-1.247646	-1.081362
