18
03/25/2019 10:01, XYZ structure generated by mol3D Class, molSimplify
C 	-1.289184	-1.256783	-0.003531
C 	-0.414201	-0.002663	-0.006239
C 	-1.264946	1.248421	0.008605
C 	0.704862	-0.013641	-1.091419
C 	1.786849	0.017801	-0.002568
C 	0.706498	0.001899	1.095975
H 	-1.921695	-1.288635	-0.909449
H 	-0.686713	-2.169560	0.039300
H 	-1.967113	-1.256970	0.870517
H 	-1.903475	1.303959	-0.890246
H 	-1.920418	1.288799	0.889811
H 	-0.647404	2.154014	0.017091
H 	0.711003	-0.891414	-1.741966
H 	0.703188	0.876883	-1.738448
H 	2.447758	-0.857575	-0.003789
H 	2.392744	0.919122	-0.017503
H 	0.689852	0.880889	1.756953
H 	0.697526	-0.900391	1.717931
