13
02/13/2019 22:15, XYZ structure generated by mol3D Class, molSimplify
C 	-1.828613	-0.654803	0.154245
O 	-1.256339	0.571209	-0.296457
C 	-0.014288	0.736819	0.231349
O 	0.811899	-0.221485	-0.403423
C 	2.132934	-0.328619	0.097544
H 	-1.203839	-1.545998	-0.099625
H 	-1.939310	-0.466537	1.259926
H 	-2.830467	-0.718446	-0.363295
H 	0.083087	0.732297	1.323456
H 	0.316325	1.784895	-0.080336
H 	2.656990	-1.049112	-0.537270
H 	2.181392	-0.733627	1.144491
H 	2.617853	0.654454	0.105660
