14
02/13/2019 22:15, XYZ structure generated by mol3D Class, molSimplify
C 	-0.040001	1.818353	0.057125
N 	0.434190	0.430669	-0.040122
C 	-0.209689	-0.432613	1.025089
C 	0.046875	-1.531099	0.013451
C 	-0.040285	-0.473272	-1.061719
H 	-0.316700	2.088390	-1.151970
H 	-1.095730	1.893299	0.990135
H 	1.053100	2.434435	0.579327
H 	-1.293469	-0.048064	1.194456
H 	0.366153	-0.426922	2.016535
H 	1.131465	-1.874214	0.042998
H 	-0.731019	-2.365695	-0.117537
H 	-1.094175	-0.287757	-1.381011
H 	0.427416	-0.673880	-2.019657
