11
02/13/2019 22:15, XYZ structure generated by mol3D Class, molSimplify
C 	-2.268131	-0.001592	-0.182105
C 	-1.115505	0.001373	0.167227
C 	0.269664	0.001214	0.580693
C 	1.292935	-0.747477	-0.242154
C 	1.294610	0.746925	-0.240900
H 	-3.290919	-0.002255	-0.487548
H 	0.421939	-0.002042	1.656968
H 	2.077219	-1.269758	0.297722
H 	0.932875	-1.256941	-1.130421
H 	0.936232	1.257703	-1.129314
H 	2.080993	1.268033	0.297561
