13
02/13/2019 22:15, XYZ structure generated by mol3D Class, molSimplify
O 	-2.326875	-0.100347	-0.093494
C 	-0.989433	-0.312201	0.399298
C 	-0.047384	0.695352	-0.235682
C 	1.365232	0.488619	0.275437
O 	1.866764	-0.710137	-0.319075
H 	-2.381888	-0.744942	-0.940891
H 	-0.591807	-1.298945	0.261068
H 	-1.034028	-0.039619	1.497757
H 	-0.421254	1.720629	-0.054048
H 	-0.017158	0.478903	-1.331384
H 	1.379329	0.427756	1.418791
H 	2.027390	1.326032	-0.055568
H 	2.733026	-0.852472	0.067098
