10
02/13/2019 22:15, XYZ structure generated by mol3D Class, molSimplify
C 	-2.104183	-0.190917	-0.401557
N 	-0.843395	-0.405456	0.345411
N 	-0.039323	0.641531	0.668683
C 	1.380472	0.468068	-0.307654
N 	1.891789	-0.666279	-0.147812
H 	-2.806425	-1.072031	-0.841179
H 	-2.614190	0.860167	-0.862407
H 	-0.521895	1.530513	-1.183999
H 	1.915614	1.436800	-1.388426
H 	1.170843	-1.402499	0.684030
