13
02/13/2019 22:15, XYZ structure generated by mol3D Class, molSimplify
C 	-1.599160	-0.721968	0.209165
N 	-0.340699	0.041816	-0.189168
C 	-0.322436	1.473087	-0.079229
C 	0.751013	-0.722147	-0.168956
N 	1.974026	-0.317625	0.178657
H 	-2.490442	-0.163654	1.585940
H 	-0.968751	-2.171228	0.608943
H 	-2.546352	-0.478559	-1.201028
H 	-0.732178	1.953880	1.247962
H 	-1.336013	1.772485	-1.105966
H 	0.954394	1.860635	-0.550958
H 	0.523107	-1.773532	-0.378887
H 	2.023748	0.717056	0.404623
