8
02/13/2019 22:15, XYZ structure generated by mol3D Class, molSimplify
O 	1.353341	-1.002224	0.016523
C 	1.323392	0.213626	-0.026785
C 	0.016689	1.020994	-0.001813
C 	-1.149108	0.136694	0.030015
N 	-2.038992	-0.620072	-0.021680
H 	2.270307	0.809652	-0.052833
H 	0.085173	1.625805	0.932149
H 	0.031309	1.696176	-0.857184
