9
02/13/2019 22:15, XYZ structure generated by mol3D Class, molSimplify
C 	-2.167423	-0.033915	-0.062614
C 	-0.858524	-0.391155	0.051286
O 	-0.021348	0.660927	0.082256
C 	1.326476	0.430362	-0.051834
O 	1.781201	-0.669383	-0.023227
H 	-2.827376	-0.882266	-0.086209
H 	-2.575825	0.932371	-0.234504
H 	-0.299660	-1.364465	0.314711
H 	1.928020	1.373350	-0.178777
