12
02/13/2019 22:15, XYZ structure generated by mol3D Class, molSimplify
C 	-2.273607	-0.109352	-0.165546
N 	-0.853876	-0.471897	0.021701
C 	0.087268	0.616711	0.183501
C 	1.466719	0.230313	0.107707
C 	2.570278	-0.317189	-0.231406
H 	-2.760535	-1.095608	-0.159009
H 	-2.279859	0.236641	-1.314806
H 	-2.769893	0.807166	0.587871
H 	-0.864104	-1.124984	0.821805
H 	0.002686	1.287684	-0.660714
H 	-0.001093	1.255010	1.108186
H 	3.532419	-0.642885	-0.216513
