16
03/25/2019 10:02, XYZ structure generated by mol3D Class, molSimplify
C 	-1.958144	-1.109802	-0.094605
C 	-0.487775	-1.120809	-0.013680
C 	0.509422	-0.215418	-0.126122
C 	1.976326	-0.642737	0.228841
C 	0.359720	1.157974	-0.461604
C 	-0.314737	2.060152	0.354240
H 	-2.575941	-1.804803	0.847916
H 	-2.262018	-1.665622	-1.130128
H 	-2.452019	0.208804	0.070183
H 	-0.086909	-2.112699	0.205207
H 	2.154301	-1.602572	0.884364
H 	2.254359	0.402798	0.828072
H 	2.663172	-0.609788	-0.735961
H 	0.859579	1.468412	-1.381970
H 	-0.224437	3.073298	0.108974
H 	-0.774729	1.959660	1.427212
