14
03/25/2019 10:01, XYZ structure generated by mol3D Class, molSimplify
C 	1.184595	1.246011	0.566323
C 	0.652786	0.196682	-0.411033
N 	1.550322	-0.946158	-0.430278
C 	-0.770169	-0.193751	0.008174
N 	-1.762238	0.638058	-0.413886
O 	-0.986508	-1.172747	0.704657
H 	1.203307	0.837032	1.583560
H 	0.560274	2.144577	0.577145
H 	2.203540	1.520401	0.289988
H 	0.628952	0.627243	-1.419648
H 	1.402367	-1.456869	0.440909
H 	1.241194	-1.592183	-1.153087
H 	-2.699517	0.483262	-0.073022
H 	-1.571232	1.472018	-0.944831
