8
02/13/2019 22:15, XYZ structure generated by mol3D Class, molSimplify
N 	-2.245066	0.115765	-0.157815
C 	-1.098926	0.027463	0.058892
C 	0.255479	-0.175435	0.507133
C 	1.288522	0.668538	-0.006130
O 	1.194893	-0.706730	-0.459447
H 	0.241272	-0.623866	1.481211
H 	2.115121	0.960396	0.709877
H 	1.009628	1.420005	-0.706556
