14
03/25/2019 10:02, XYZ structure generated by mol3D Class, molSimplify
O 	1.949628	-0.117288	-0.381715
C 	0.816878	0.025601	0.477038
C 	-0.123531	1.300564	0.086438
C 	-1.491989	0.677768	-0.186796
C 	-1.550194	-0.692885	-0.089129
C 	-0.088031	-1.264697	0.080624
H 	2.661554	0.372595	0.101199
H 	1.047963	0.108423	1.522425
H 	-0.100240	2.002692	0.882675
H 	0.252600	1.872035	-0.822175
H 	-2.467096	1.274806	-0.267349
H 	-2.491202	-1.248665	-0.230715
H 	0.222436	-1.658319	-0.941253
H 	-0.093555	-2.066803	0.838407
