8
02/11/2019 18:37, XYZ structure generated by mol3D Class, molSimplify
O 	1.343107	-0.558926	0.062188
C 	0.628957	0.578652	-0.043688
C 	-0.790861	0.475263	0.086180
O 	-1.363205	-0.556415	-0.050645
H 	0.747933	-1.304511	-0.406621
H 	0.776224	1.098052	-1.108311
H 	1.078012	1.385694	0.659156
H 	-1.429442	1.357890	0.166429
