16
02/13/2019 22:15, XYZ structure generated by mol3D Class, molSimplify
C 	0.597661	1.465605	0.100103
C 	0.459307	-0.001497	-0.338222
C 	1.754884	-0.761116	0.003397
C 	-0.767982	-0.705097	0.304240
N 	-2.017118	-0.037920	-0.225417
H 	0.893732	1.624246	1.165061
H 	1.432538	1.986398	-0.433366
H 	-0.336673	2.039242	-0.040107
H 	0.300422	-0.073497	-1.458600
H 	1.693218	-1.136705	1.136540
H 	1.721831	-1.760594	-0.583754
H 	2.688246	-0.157294	-0.175988
H 	-0.795492	-0.792142	1.429041
H 	-0.805641	-1.740057	-0.098943
H 	-2.787577	-0.603643	-0.003175
H 	-2.254275	0.875199	0.189480
