16
03/25/2019 10:01, XYZ structure generated by mol3D Class, molSimplify
C 	-2.792947	-0.059377	-0.043709
C 	-1.360771	0.235415	0.093625
C 	-0.269812	-0.578273	0.068900
C 	1.123411	-0.145930	-0.025866
C 	1.455790	1.409053	-0.068678
C 	2.090987	-1.061248	0.009617
H 	-3.244594	0.957227	-0.594935
H 	-2.945611	-1.187442	-0.844813
H 	-3.195623	-0.347537	1.177430
H 	-1.113321	1.260913	0.072400
H 	-0.550410	-1.623937	-0.017906
H 	2.552322	1.319454	0.551844
H 	0.621301	2.058153	0.513723
H 	1.476489	1.740531	-1.317701
H 	1.824980	-2.178401	0.213903
H 	3.134174	-0.890723	-0.157453
