11
02/13/2019 22:15, XYZ structure generated by mol3D Class, molSimplify
C 	-1.137299	0.325161	0.019613
C 	0.112644	1.249082	-0.044372
C 	1.181943	0.219781	0.066439
N 	0.765108	-0.998942	-0.028995
N 	-0.596458	-1.025019	0.008978
H 	-1.883541	0.580257	-0.798592
H 	-1.716399	0.605136	0.948859
H 	0.103329	1.916883	0.801100
H 	0.145586	1.876023	-0.936867
H 	2.265021	0.399380	-0.027246
H 	-1.061917	-1.897900	-0.205441
