10
03/25/2019 10:01, XYZ structure generated by mol3D Class, molSimplify
O 	1.252858	-1.399249	-0.070380
N 	0.358450	-0.334294	0.084751
C 	-0.907316	-0.696776	-0.182414
N 	-2.034586	-0.099265	0.190279
C 	0.876807	0.975695	0.021478
O 	0.302839	1.994208	-0.085448
H 	1.138945	-2.138138	0.751558
H 	-0.937102	-1.720135	-0.495202
H 	-2.921184	-0.640147	-0.066550
H 	2.008493	0.829776	0.153301
