8
02/11/2019 18:07, XYZ structure generated by mol3D Class, molSimplify
C 	0.757354	0.026686	-0.014235
C 	-0.761909	0.002334	0.006237
H 	1.075918	0.787263	0.089741
H 	1.052566	0.053787	0.954495
H 	1.241358	-1.137462	-0.932286
H 	-0.975064	0.462552	0.573615
H 	-1.238503	-1.154060	0.646782
H 	-1.110779	0.676520	-1.203501
