14
03/25/2019 10:01, XYZ structure generated by mol3D Class, molSimplify
C 	-1.814758	-0.928935	0.090443
O 	-1.126436	0.185208	-0.445305
C 	0.014432	0.470717	0.329367
C 	0.483834	1.882123	-0.021482
C 	1.107037	-0.543616	0.097942
C 	1.989632	-1.327351	-0.120548
H 	-2.710175	-1.005958	-0.466044
H 	-2.184638	-0.694146	1.167407
H 	-1.160396	-1.866137	0.219807
H 	-0.129865	0.325261	1.447657
H 	1.511668	2.105197	0.322676
H 	-0.303879	2.608329	0.319446
H 	0.483611	1.828196	-1.161113
H 	2.688553	-2.100617	-0.277540
