13
02/13/2019 22:15, XYZ structure generated by mol3D Class, molSimplify
N 	-1.943379	0.469154	-0.044852
C 	-0.895327	-0.591538	-0.141412
C 	0.363330	-0.146293	0.489748
C 	1.206110	0.866962	-0.101007
N 	1.567713	-0.589717	-0.265782
H 	-2.693524	0.183798	-0.665135
H 	-2.351810	0.460484	0.880828
H 	-1.076751	-1.613850	0.293246
H 	-0.749828	-0.783891	-1.212276
H 	0.402053	-0.320267	1.555581
H 	0.906224	1.330136	-1.010013
H 	1.900760	1.488339	0.481198
H 	2.309783	-0.830716	0.405941
