12
02/11/2019 18:37, XYZ structure generated by mol3D Class, molSimplify
C 	1.307097	-0.634029	-0.005124
C 	-0.015105	0.100742	-0.031898
C 	-1.315334	-0.702329	0.013773
C 	0.027446	1.441627	0.009103
H 	1.800402	-0.582036	1.011684
H 	1.063254	-1.709548	-0.073005
H 	2.051800	-0.336145	-0.809166
H 	-1.140121	-1.759050	0.014395
H 	-1.902019	-0.381511	0.906718
H 	-2.036944	-0.455627	-0.799294
H 	1.014400	1.960844	0.016716
H 	-0.899639	2.004219	-0.099620
