13
03/25/2019 10:01, XYZ structure generated by mol3D Class, molSimplify
C 	2.027247	-0.452133	0.125069
O 	1.054529	0.463365	-0.416898
C 	-0.151092	0.399815	0.258852
C 	-0.977370	1.708494	-0.008960
C 	-0.962111	-0.847116	0.003325
N 	-1.604165	-1.824767	-0.090132
H 	1.794675	-1.504392	-0.156222
H 	1.965463	-0.369991	1.233459
H 	3.031374	-0.106796	-0.214284
H 	0.046709	0.376549	1.324074
H 	-1.798790	1.782085	0.711251
H 	-0.361786	2.602428	0.133592
H 	-1.398377	1.594743	-1.024765
