16
02/13/2019 22:15, XYZ structure generated by mol3D Class, molSimplify
C 	0.573066	1.479591	0.113959
C 	0.461351	0.027734	-0.320856
C 	1.709660	-0.793280	-0.008121
C 	-0.744940	-0.698395	0.301783
N 	-1.981267	-0.065279	-0.235938
H 	0.631981	1.664010	1.228105
H 	1.512241	1.937401	-0.268092
H 	-0.269036	2.073181	-0.203994
H 	0.228526	0.052180	-1.426030
H 	1.807699	-1.086306	1.065863
H 	1.644284	-1.759443	-0.669485
H 	2.660521	-0.339590	-0.323354
H 	-0.735319	-0.610103	1.396719
H 	-0.727628	-1.822029	0.162071
H 	-2.856027	-0.576422	-0.019330
H 	-2.112397	0.897010	0.124566
