16
03/25/2019 10:01, XYZ structure generated by mol3D Class, molSimplify
C 	2.583629	-0.227923	-0.082114
O 	1.335959	0.346628	0.096329
C 	0.248550	-0.494123	0.041485
C 	-0.973142	-0.033981	0.033242
C 	-2.110382	-1.014889	-0.014468
C 	-1.238402	1.464539	-0.053114
H 	3.221229	-0.204841	0.899544
H 	2.548293	-1.301656	-0.481953
H 	3.172706	0.335289	-0.856022
H 	0.448646	-1.572824	0.094681
H 	-2.057621	-1.690602	-0.902329
H 	-2.072601	-1.602383	0.912630
H 	-3.041726	-0.488892	0.008703
H 	-0.885894	1.986544	0.825582
H 	-2.296346	1.699531	-0.230961
H 	-0.691834	1.888861	-0.906045
