10
02/13/2019 22:15, XYZ structure generated by mol3D Class, molSimplify
C 	1.195590	-0.084773	-0.039766
C 	0.307978	1.188603	0.017856
C 	-1.054202	0.552716	-0.023329
N 	-1.038729	-0.707533	-0.007401
O 	0.260304	-1.176816	0.036203
H 	1.751420	-0.179556	-0.961306
H 	1.857267	-0.093518	0.856120
H 	0.444839	1.934911	-0.760948
H 	0.379632	1.719120	0.970993
H 	-1.992612	1.065824	-0.037935
