8
02/13/2019 22:15, XYZ structure generated by mol3D Class, molSimplify
N 	1.151209	1.039948	-0.070322
C 	0.497956	-0.145405	-0.057985
O 	1.124027	-1.222712	0.044470
C 	-1.037544	-0.032284	-0.103881
C 	-2.232962	0.093586	0.096440
H 	0.752853	1.960072	0.563014
H 	2.191033	0.859348	0.597408
H 	-3.325633	0.109842	-0.110143
