9
02/13/2019 22:15, XYZ structure generated by mol3D Class, molSimplify
N 	1.622248	-0.623863	-0.044358
C 	0.454377	0.097885	0.005778
N 	0.535356	1.406728	0.038361
C 	-0.888475	-0.656272	0.147556
O 	-1.911559	-0.050615	-0.132829
H 	2.478533	-0.023196	-0.460002
H 	1.630063	-1.614125	-0.086900
H 	-0.400489	1.751072	0.327869
H 	-0.924117	-1.727822	0.584725
