11
03/25/2019 10:02, XYZ structure generated by mol3D Class, molSimplify
N 	-2.070774	-0.128395	-0.005223
C 	-0.793773	-0.015872	0.004968
N 	0.086165	-1.085324	0.007507
C 	1.413830	-0.655448	-0.006685
C 	1.399268	0.684203	0.001800
N 	0.053368	1.083919	-0.000668
H 	-2.511173	0.792235	0.009210
H 	-0.240307	-2.032614	-0.017547
H 	2.231249	-1.353142	-0.011595
H 	2.206792	1.397795	0.005763
H 	-0.286302	2.025384	-0.009285
