14
03/25/2019 10:02, XYZ structure generated by mol3D Class, molSimplify
C 	2.251657	0.113015	-0.056220
C 	0.738513	0.067917	0.024867
C 	-0.050298	1.123682	0.043824
C 	-1.500043	0.692023	0.022310
O 	-1.483505	-0.753533	-0.124905
C 	-0.147372	-1.145975	0.115744
H 	2.569316	1.183232	0.033837
H 	2.557415	-0.240131	-1.066377
H 	2.752524	-0.563351	0.691855
H 	0.195766	2.170000	-0.049120
H 	-2.049210	1.020093	-0.863263
H 	-2.058155	0.986485	0.949800
H 	0.167734	-1.917923	-0.642191
H 	-0.025627	-1.634121	1.135505
