12
03/25/2019 10:01, XYZ structure generated by mol3D Class, molSimplify
C 	-0.902302	-1.084590	-0.017273
N 	-1.440920	0.324549	0.329600
C 	-0.525264	1.124278	-0.092553
N 	0.659495	0.622326	-0.585806
C 	1.482250	0.052234	0.554155
C 	0.621217	-0.814817	-0.271635
H 	-1.203697	-1.941960	0.744528
H 	-1.455148	-1.256021	-1.134294
H 	-0.769688	2.228511	-0.220569
H 	1.192616	0.207320	1.624604
H 	2.513821	-0.046337	0.452853
H 	1.030777	-1.489401	-1.034108
