10
03/25/2019 10:02, XYZ structure generated by mol3D Class, molSimplify
O 	-1.991700	0.113936	-0.027057
C 	-0.647537	-0.063263	-0.010500
N 	0.034728	-1.164060	0.039150
C 	1.360350	-0.734162	-0.014985
C 	1.447934	0.615060	-0.009448
N 	0.125433	1.036542	0.024323
H 	-2.426763	-0.745915	0.070644
H 	2.155878	-1.485593	-0.135735
H 	2.239635	1.366248	-0.050932
H 	-0.178391	1.999031	0.079451
