16
03/25/2019 10:01, XYZ structure generated by mol3D Class, molSimplify
N 	-1.718987	-1.044235	0.028106
C 	-0.298844	-1.195776	0.176102
C 	0.650289	-0.130013	-0.411217
O 	2.047320	-0.557575	-0.123132
C 	0.404592	1.261395	0.241616
N 	-0.916826	1.851001	0.024400
H 	-2.433803	-1.535753	0.671660
H 	-1.989832	-1.168795	-0.921473
H 	-0.100111	-1.157513	1.247457
H 	0.122359	-2.188366	-0.112451
H 	0.789914	-0.030488	-1.468576
H 	1.699199	-1.586434	0.959398
H 	0.538337	1.078924	1.307116
H 	1.254449	2.061418	0.171397
H 	-1.617172	1.013395	-0.271412
H 	-0.825144	2.494761	-0.903912
