12
02/13/2019 22:15, XYZ structure generated by mol3D Class, molSimplify
O 	-1.877566	0.514376	-0.105332
C 	-0.950674	-0.605686	-0.162666
C 	0.355403	-0.310147	0.546027
C 	1.081354	0.858675	-0.124665
N 	1.609716	-0.542793	-0.234612
H 	-2.399723	0.534873	0.738994
H 	-0.819542	-0.694788	-1.271834
H 	-1.422267	-1.535320	0.051970
H 	0.291310	-0.479322	1.583968
H 	1.778369	1.624820	0.362446
H 	0.662810	1.333711	-1.070047
H 	2.416466	-0.729400	0.427515
