10
02/11/2019 18:17, XYZ structure generated by mol3D Class, molSimplify
C 	-1.250072	-0.234436	-0.026407
C 	0.053521	0.530556	0.054151
N 	1.209514	-0.310403	-0.120489
H 	-2.099976	0.480942	-0.018972
H 	-1.350658	-0.767165	-0.958969
H 	-1.378328	-0.944160	0.828634
H 	0.099831	1.318183	-0.724108
H 	0.036660	1.073173	1.010162
H 	1.294793	-0.932698	0.679328
H 	2.082257	0.235470	-0.138845
