14
02/11/2019 18:37, XYZ structure generated by mol3D Class, molSimplify
C 	1.947745	-0.172267	0.027678
C 	0.509396	0.588225	0.039626
C 	-0.545718	-0.530819	-0.069133
C 	-1.933449	0.092898	0.019457
H 	1.999488	-0.797657	-0.942565
H 	2.086663	-0.628447	1.013397
H 	2.747824	0.571848	-0.192658
H 	0.351070	1.246878	0.877968
H 	0.550258	1.162471	-0.904421
H 	-0.375915	-1.117478	-0.886276
H 	-0.278980	-1.242304	0.724023
H 	-2.137583	0.658638	-0.977335
H 	-2.827138	-0.558786	0.236204
H 	-1.853423	0.966342	0.841762
