11
02/13/2019 22:15, XYZ structure generated by mol3D Class, molSimplify
N 	-1.662446	0.435641	0.367987
C 	-1.012010	-0.548864	-0.331186
N 	0.350572	-0.295648	-0.606972
C 	0.967004	0.835097	-0.047335
C 	1.347956	-0.409875	0.444254
H 	-2.660139	0.123525	0.424241
H 	-1.365564	-1.552872	-0.639240
H 	0.350439	1.617087	0.490492
H 	1.551916	1.298363	-0.902268
H 	0.852076	-0.594166	1.470335
H 	2.370393	-0.949900	0.220277
