13
02/13/2019 22:15, XYZ structure generated by mol3D Class, molSimplify
C 	-2.339513	-0.018013	-0.001386
C 	-0.901010	-0.524413	0.001695
C 	0.111663	0.629572	0.000281
C 	1.502112	0.162999	-0.000248
C 	2.634926	-0.244807	-0.000940
H 	-3.051759	-0.848446	-0.005429
H 	-2.545226	0.593194	0.885164
H 	-2.539727	0.600269	-0.884390
H 	-0.720684	-1.156381	-0.874705
H 	-0.722279	-1.152026	0.883101
H 	-0.054786	1.264237	0.880632
H 	-0.055008	1.268994	-0.876827
H 	3.640774	-0.601870	-0.000425
