13
02/13/2019 22:15, XYZ structure generated by mol3D Class, molSimplify
C 	-1.621698	-0.909588	-0.037881
C 	-1.276262	0.590768	0.233128
C 	0.192028	0.939807	-0.420051
C 	1.093110	-0.032330	0.387969
O 	2.070058	-0.544575	-0.178880
H 	-1.437422	-1.087541	-1.095731
H 	-2.736059	-1.012317	0.240698
H 	-1.108061	-1.778711	0.519243
H 	-1.911680	1.281638	-0.331311
H 	-1.265303	1.026898	1.325765
H 	0.545173	1.944603	-0.224539
H 	0.342659	0.643010	-1.428560
H 	0.738391	-0.339642	1.465489
