15
03/25/2019 10:01, XYZ structure generated by mol3D Class, molSimplify
C 	-2.127650	-1.015148	-0.285779
C 	-1.384424	0.476593	0.385728
C 	0.077208	0.529117	0.120693
N 	0.586449	1.756530	0.078884
N 	0.699538	-0.716312	-0.153572
N 	2.158329	-0.772096	-0.100706
H 	-3.301875	-0.674743	-0.083134
H 	-1.697316	-1.050438	-1.596638
H 	-1.949313	-2.232358	0.302078
H 	-1.870008	1.568882	-0.212239
H 	-1.529700	0.561851	1.666915
H 	1.639336	1.875302	0.058857
H 	0.150370	-1.621888	0.126276
H 	2.390093	-0.006698	-0.994932
H 	2.533009	-0.299682	0.848201
