12
03/25/2019 10:01, XYZ structure generated by mol3D Class, molSimplify
O 	2.452681	-0.169324	0.037518
C 	1.103543	-0.532977	-0.442027
C 	-0.020040	0.168248	0.325578
O 	-0.302645	1.510923	-0.050871
C 	-1.264340	-0.701697	0.240167
O 	-2.303655	-0.228756	-0.200016
H 	2.514254	-0.590570	0.996615
H 	0.979602	-0.249053	-1.538286
H 	0.870770	-1.598488	-0.258862
H 	0.315904	0.285526	1.351479
H 	-1.174188	1.393853	-0.491425
H 	-1.245246	-1.756978	0.745037
