13
03/25/2019 10:02, XYZ structure generated by mol3D Class, molSimplify
C 	1.899266	0.021797	-0.456655
C 	0.730454	-0.006898	0.536478
C 	-0.260144	-1.150522	0.302666
O 	-1.360252	-0.559121	-0.410850
N 	-1.320261	0.814525	-0.239902
C 	-0.214871	1.141245	0.303697
H 	1.524182	-0.013626	-1.487207
H 	2.499510	0.932340	-0.345107
H 	2.563962	-0.833616	-0.299900
H 	1.109111	-0.015191	1.562851
H 	-0.641077	-1.562945	1.247663
H 	0.134397	-1.964173	-0.312202
H 	-0.002972	2.191484	0.478583
