11
02/13/2019 22:15, XYZ structure generated by mol3D Class, molSimplify
C 	-1.898191	-0.577136	-0.057260
N 	-1.254679	0.758343	-0.050477
C 	-0.002379	0.756530	0.090300
N 	0.805722	-0.367730	0.278363
O 	2.130442	-0.166388	-0.262509
H 	-1.474403	-1.157834	-0.893961
H 	-2.995942	-0.442767	-0.135688
H 	-1.654844	-1.145551	0.846175
H 	0.573693	1.661586	0.102415
H 	0.468254	-1.218104	-0.129801
H 	2.710487	-0.140446	0.524192
