9
02/11/2019 18:37, XYZ structure generated by mol3D Class, molSimplify
C 	1.647699	0.058998	0.100021
O 	0.420542	-0.431430	-0.190496
N 	-0.631461	0.491637	-0.054856
C 	-1.735606	-0.081335	0.143027
H 	1.862944	0.003695	1.330362
H 	1.558298	1.178034	-0.317080
H 	2.564279	-0.499035	-0.371626
H 	-1.725203	-1.217428	0.156213
H 	-2.608222	0.551177	0.093695
