14
02/13/2019 22:15, XYZ structure generated by mol3D Class, molSimplify
C 	2.002200	-0.490251	0.197507
N 	1.003078	0.134467	-0.644509
C 	0.019004	0.826230	0.157665
C 	-1.132671	-0.054272	0.564467
O 	-1.979731	-0.325042	-0.477250
H 	2.530637	0.173414	0.947317
H 	2.809444	-0.897056	-0.373805
H 	1.542241	-1.283809	0.854956
H 	1.374148	0.760714	-1.347674
H 	0.412806	1.217332	1.148570
H 	-0.333184	1.744982	-0.345683
H 	-1.583961	0.552846	1.350047
H 	-0.786761	-1.013363	1.039517
H 	-2.246925	-1.418738	-0.387046
