14
03/25/2019 10:01, XYZ structure generated by mol3D Class, molSimplify
O 	0.285035	1.599098	-0.416010
C 	0.014389	0.525769	0.540132
C 	-1.440916	0.151770	0.372164
C 	-1.814829	-0.817647	-0.521923
C 	0.895338	-0.693075	0.513684
C 	2.017649	-0.820743	-0.235811
H 	0.374846	0.990046	-1.256233
H 	0.187373	1.010288	1.495729
H 	-2.291950	0.713440	0.950998
H 	-2.876247	-0.949063	-0.651777
H 	-1.172584	-1.458962	-1.294199
H 	0.672888	-1.503858	1.173571
H 	2.515700	-1.840349	-0.316182
H 	2.450506	-0.041504	-0.872423
