10
02/13/2019 22:15, XYZ structure generated by mol3D Class, molSimplify
N 	-2.009553	-0.042745	0.293156
C 	-0.679431	-0.722639	-0.404173
C 	0.568716	0.133345	-0.098085
O 	1.771115	-0.484359	0.393785
O 	0.517182	1.348563	-0.334986
H 	-2.349181	-0.783597	2.061258
H 	-1.711222	1.837346	0.441942
H 	-0.422825	-2.105340	-0.092397
H 	-0.686129	-0.601851	-1.770120
H 	1.619737	-1.402666	0.333199
