12
03/25/2019 10:01, XYZ structure generated by mol3D Class, molSimplify
C 	1.143044	1.311460	0.048060
N 	1.098483	-0.030669	-0.426907
C 	0.887604	-1.073552	0.546618
C 	-0.111587	-0.765854	-0.505289
C 	-1.333859	-0.114514	-0.030536
N 	-2.359027	0.436922	0.216520
H 	1.406807	1.930901	-0.931719
H 	0.133989	1.716286	0.580538
H 	2.031249	1.476004	0.748684
H 	0.518514	-0.818036	1.555624
H 	1.556403	-1.896015	0.521376
H 	-0.313306	-1.300030	-1.412280
