14
03/25/2019 10:01, XYZ structure generated by mol3D Class, molSimplify
C 	-1.494879	-1.080790	-0.539444
C 	-1.103659	-0.275020	0.683969
C 	0.080897	0.669541	0.491114
O 	-0.259699	1.602890	-0.545220
C 	1.271102	-0.168843	0.157703
C 	2.219601	-0.864559	-0.109433
H 	-2.505663	-1.480100	-0.354741
H 	-1.573695	-0.423745	-1.438125
H 	-0.780444	-1.925469	-0.715012
H 	-0.853134	-0.922662	1.558280
H 	-1.932604	0.378889	0.970186
H 	0.284794	1.163979	1.443727
H 	0.559676	2.041447	-0.822420
H 	3.096692	-1.384426	-0.390681
