12
03/25/2019 10:01, XYZ structure generated by mol3D Class, molSimplify
C 	1.211664	1.239053	0.111649
C 	0.863541	-0.191132	0.034159
O 	1.731532	-1.004838	0.027417
C 	-0.580188	-0.599555	-0.159266
C 	-1.707340	-0.060751	0.644945
O 	-1.460469	0.310993	-0.769089
H 	1.724786	1.491635	2.113452
H 	-0.499013	2.143080	-0.306220
H 	2.671374	1.390830	-0.962299
H 	-0.569459	-1.623929	-0.670615
H 	-2.643655	-0.715579	0.771124
H 	-1.569028	0.616736	1.519914
