10
02/11/2019 18:37, XYZ structure generated by mol3D Class, molSimplify
C 	-0.041606	-1.094109	-0.153998
C 	1.062025	0.074981	0.221927
O 	0.015059	1.080970	-0.314001
C 	-1.045308	0.038920	0.238017
H 	-0.095705	-1.276772	-1.318589
H 	0.077424	-2.110438	0.464876
H 	1.291438	0.067651	1.432482
H 	2.201269	0.416545	-0.241536
H 	-2.141358	0.221442	-0.375233
H 	-1.275721	0.022887	1.378576
