16
03/25/2019 10:01, XYZ structure generated by mol3D Class, molSimplify
C 	0.463467	1.562838	0.020464
C 	-0.077136	0.158974	-0.366536
C 	1.018815	-0.844047	-0.199302
C 	2.263191	-0.549777	0.162117
C 	-1.247376	-0.245642	0.433081
C 	-2.492921	-0.380401	-0.081344
H 	0.804847	1.603029	1.061896
H 	1.227907	1.823057	-0.725957
H 	-0.345941	2.244137	-0.003779
H 	-0.491507	0.156165	-1.394842
H 	0.726043	-1.910419	-0.248490
H 	2.953188	-1.330517	0.326204
H 	2.731107	0.508331	0.183400
H 	-1.058823	-0.430524	1.539710
H 	-2.884448	-0.079232	-1.067489
H 	-3.280380	-0.764211	0.573807
