9
02/11/2019 18:37, XYZ structure generated by mol3D Class, molSimplify
C 	-1.351696	-0.338016	0.009882
C 	0.094161	0.121161	0.033962
N 	1.056572	-0.837638	-0.130659
O 	0.325969	1.333723	-0.032572
H 	-1.614727	-1.372703	-0.612223
H 	-1.906024	0.626617	-0.585129
H 	-1.787699	-0.265107	1.112131
H 	0.794147	-1.800561	1.183950
H 	1.976320	-0.536157	0.711572
