14
02/13/2019 22:15, XYZ structure generated by mol3D Class, molSimplify
C 	-2.004368	0.303222	-0.056958
C 	-0.823536	-0.645437	0.184385
N 	0.347588	-0.148594	-0.509248
C 	1.120312	0.927019	0.176096
C 	1.659437	-0.478113	0.005795
H 	-2.888172	-0.131449	0.346756
H 	-1.757132	1.247782	0.531266
H 	-2.055998	0.411284	-1.134774
H 	-0.587151	-0.677379	1.254214
H 	-1.030726	-1.583416	-0.190928
H 	1.471711	1.798241	-0.443543
H 	0.695302	1.216963	1.126850
H 	1.641953	-0.969616	0.955290
H 	2.401299	-0.789939	-0.707026
