13
02/13/2019 22:15, XYZ structure generated by mol3D Class, molSimplify
C 	-1.836055	-0.402431	0.361558
O 	-0.913750	-0.048042	-0.644522
C 	0.020417	0.936896	-0.236858
C 	1.157486	0.298873	0.548759
O 	1.735321	-0.745944	-0.199371
H 	-2.526534	-1.125106	-0.079744
H 	-1.352412	-0.862785	1.235095
H 	-2.405906	0.475301	0.700185
H 	0.416278	1.371175	-1.159967
H 	-0.474053	1.730797	0.344519
H 	0.792548	-0.063084	1.524390
H 	1.939185	1.040147	0.747019
H 	0.988703	-1.214744	-0.600449
