14
03/25/2019 10:01, XYZ structure generated by mol3D Class, molSimplify
C 	1.279233	1.371051	0.234722
N 	0.579516	0.108344	-0.120803
N 	1.458810	-0.977726	-0.204243
C 	-0.765717	-0.270844	0.082203
C 	-1.768348	0.915289	-0.222063
O 	-0.945532	-1.451524	0.244697
H 	2.009403	1.574379	-0.496919
H 	1.776409	1.434828	1.200645
H 	0.465582	2.147068	0.236073
H 	1.248073	-1.390896	-1.130389
H 	1.169765	-1.679061	0.477943
H 	-1.405381	1.298636	-1.236142
H 	-1.644511	1.654023	0.565045
H 	-2.802955	0.607119	-0.113001
