9
03/25/2019 10:02, XYZ structure generated by mol3D Class, molSimplify
N 	1.986202	-0.126095	-0.145067
C 	0.687661	0.141353	0.134772
C 	-0.236820	1.113999	0.046748
O 	-1.509306	0.519753	-0.012713
N 	-1.260653	-0.826165	-0.023677
N 	-0.071169	-1.040805	-0.049193
H 	2.276505	-0.844504	1.076015
H 	2.652431	1.242080	-0.610546
H 	-0.091863	2.158741	0.039444
