10
02/11/2019 18:37, XYZ structure generated by mol3D Class, molSimplify
C 	-1.711400	0.160925	-0.041003
O 	-0.416868	-0.542314	-0.084532
C 	0.577257	0.313145	0.217544
C 	1.868538	-0.050827	-0.093875
H 	-1.781657	0.864262	1.436801
H 	-1.567491	1.272523	-1.405647
H 	-2.733767	-1.176922	-0.273869
H 	0.260961	1.317001	0.789317
H 	2.560765	0.775833	0.461330
H 	2.177204	-1.087959	-0.650655
