11
02/13/2019 22:15, XYZ structure generated by mol3D Class, molSimplify
C 	-1.180801	0.344238	0.082338
C 	0.127784	1.243519	-0.096990
C 	1.115067	0.177339	0.115277
N 	0.770388	-1.000534	0.002819
N 	-0.542982	-1.002448	-0.101475
H 	-1.953629	0.593323	-0.626583
H 	-1.413055	0.538378	1.132078
H 	0.163475	2.023331	0.655529
H 	0.173581	1.833486	-1.047765
H 	2.177597	0.455228	0.076967
H 	-0.978296	-1.911031	-0.017619
