15
02/13/2019 22:15, XYZ structure generated by mol3D Class, molSimplify
C 	1.829292	-0.211645	-0.532072
C 	0.773809	-0.273960	0.679598
C 	-0.574332	-0.027004	0.205477
C 	-1.080782	1.418045	0.185997
C 	-1.214644	-1.067510	-0.451147
H 	2.836109	-0.514291	-0.206456
H 	1.937497	0.900008	-0.854550
H 	1.366009	-0.884222	-1.341171
H 	0.781807	-1.345186	1.053164
H 	1.146944	0.351176	1.505432
H 	-2.037501	1.448023	-0.225223
H 	-1.107002	1.874822	1.179798
H 	-0.419145	2.112315	-0.443685
H 	-0.749340	-2.070912	-0.364096
H 	-2.229687	-1.225217	-0.992518
