14
02/13/2019 22:15, XYZ structure generated by mol3D Class, molSimplify
C 	1.804281	-0.648860	0.290964
C 	0.538039	0.136893	-0.208545
C 	0.495929	1.497726	-0.073350
C 	-0.789086	-0.713324	-0.476438
N 	-1.960476	-0.013007	0.273941
H 	1.765337	-2.235268	0.170280
H 	2.771293	-0.031249	-0.414095
H 	1.986577	-0.359220	1.802155
H 	-0.464235	1.986466	-0.421432
H 	1.354982	2.073958	0.182243
H 	-0.980442	-0.671877	-1.688299
H 	-0.538593	-1.809066	-0.126222
H 	-2.771993	-0.702412	0.372487
H 	-1.472623	0.134263	1.339647
