13
02/13/2019 22:15, XYZ structure generated by mol3D Class, molSimplify
C 	-1.077786	1.259653	0.187469
C 	-0.389991	-0.021615	-0.443273
C 	-1.070383	-1.250360	0.147959
C 	1.030850	-0.012247	-0.096488
C 	2.250999	0.009764	0.079283
H 	-1.234838	1.146999	1.339758
H 	-2.035217	1.351828	-0.375436
H 	-0.315217	2.108923	0.004583
H 	-0.318253	-0.051956	-1.563516
H 	-0.629236	-2.173786	-0.062153
H 	-0.958774	-1.039644	1.240472
H 	-2.121277	-1.288386	-0.021330
H 	3.280757	0.122323	0.308741
