11
03/25/2019 10:02, XYZ structure generated by mol3D Class, molSimplify
C 	-2.048067	-0.009578	0.029326
C 	-0.616401	-0.073159	-0.053896
N 	0.151905	-1.138015	0.014789
C 	1.429976	-0.694107	0.012301
C 	1.412919	0.661409	0.013244
O 	0.099791	1.051023	-0.023672
H 	-2.432921	-0.536150	0.846553
H 	-2.524781	-0.364977	-0.877126
H 	-2.433625	1.023313	0.104008
H 	2.368634	-1.286211	-0.059987
H 	2.089507	1.482634	0.145151
