11
02/13/2019 22:15, XYZ structure generated by mol3D Class, molSimplify
C 	-1.140750	0.320605	-0.025621
C 	0.103958	1.230873	0.036066
C 	1.163368	0.211201	-0.004295
N 	0.787971	-1.019552	-0.054570
N 	-0.592220	-0.976206	0.044129
H 	-1.733052	0.448666	-0.990428
H 	-1.857341	0.611195	0.747285
H 	0.097350	1.941894	0.863467
H 	0.185852	1.883612	-0.823665
H 	2.242085	0.429290	0.081384
H 	-1.093678	-1.853533	0.193771
