9
02/11/2019 18:17, XYZ structure generated by mol3D Class, molSimplify
C 	-0.079240	-0.858187	-0.007159
C 	0.773139	0.399230	-0.015146
C 	-0.703819	0.462397	-0.006116
H 	-0.126922	-1.307271	0.994911
H 	0.021490	-1.500382	-0.885128
H 	1.344286	0.706405	-0.884713
H 	1.315539	0.661954	0.997678
H 	-1.176485	0.611341	0.958182
H 	-1.259838	0.787080	-0.842536
