14
03/25/2019 10:01, XYZ structure generated by mol3D Class, molSimplify
C 	0.215491	1.922817	0.151825
C 	0.053511	0.483361	-0.346635
C 	-1.053298	-0.318579	0.326455
C 	-2.133371	-1.014127	-0.089522
C 	1.237772	-0.384687	-0.249306
C 	2.116002	-1.156541	0.130491
H 	0.633539	2.639107	-0.668876
H 	0.894969	1.909495	1.077406
H 	-0.921462	2.251973	0.283932
H 	-0.125018	0.788532	-1.455783
H 	-0.842824	-0.181425	1.390868
H 	-2.666096	-1.609854	0.690054
H 	-2.332320	-1.201593	-1.215577
H 	2.878319	-1.762591	0.631421
