16
03/25/2019 10:01, XYZ structure generated by mol3D Class, molSimplify
C 	1.715380	1.260782	0.077168
C 	0.946106	0.002927	-0.335656
C 	1.698911	-1.257061	0.100349
C 	-0.435187	0.009742	0.254147
N 	-1.471547	-0.023495	-0.482698
N 	-2.697392	-0.092154	0.150514
H 	1.809075	1.317534	1.169914
H 	2.722765	1.256534	-0.347301
H 	1.203522	2.165650	-0.264967
H 	0.831452	-0.008559	-1.423513
H 	1.809181	-1.287243	1.192353
H 	1.170801	-2.167944	-0.204775
H 	2.704811	-1.277005	-0.333837
H 	-0.511122	0.029379	1.351680
H 	-2.706160	0.350733	1.068348
H 	-3.400070	0.325120	-0.443828
