16
03/25/2019 10:01, XYZ structure generated by mol3D Class, molSimplify
C 	-2.412600	0.296682	0.018060
C 	-1.227025	-0.614618	-0.290704
C 	0.025167	-0.217922	0.475734
C 	1.342430	-0.904179	0.076873
O 	1.949641	0.345586	-0.282190
C 	0.745558	1.063663	0.022110
H 	-2.668445	0.263172	1.083606
H 	-3.301711	0.004320	-0.550753
H 	-2.182783	1.339489	-0.233225
H 	-1.484838	-1.655433	-0.049762
H 	-1.007662	-0.590807	-1.367568
H 	-0.167927	-0.242346	1.554484
H 	1.262171	-1.584319	-0.782209
H 	1.892178	-1.410645	0.880185
H 	0.313510	1.539864	-0.870674
H 	0.909211	1.830171	0.789644
