14
02/13/2019 22:15, XYZ structure generated by mol3D Class, molSimplify
C 	-0.077980	1.823211	0.034582
N 	0.465056	0.436230	-0.026819
C 	-0.061218	-0.402749	0.995041
C 	-0.026402	-1.611948	0.021950
C 	-0.093334	-0.446476	-1.040829
H 	0.510011	2.492269	-0.652422
H 	-1.185418	1.859693	-0.343074
H 	0.004460	2.188430	1.147720
H 	-1.104012	-0.167072	1.380227
H 	0.589520	-0.315893	1.904507
H 	0.947459	-2.120852	0.055956
H 	-0.884813	-2.275949	0.038536
H 	-1.170586	-0.279503	-1.282225
H 	0.500070	-0.488646	-2.004518
