8
02/11/2019 18:17, XYZ structure generated by mol3D Class, molSimplify
C 	0.063642	-0.364374	0.740014
C 	0.041458	-0.364808	-0.722861
N 	0.014168	0.821406	-0.025649
H 	0.903198	-0.705435	1.472913
H 	-0.875746	-0.659897	1.122846
H 	-0.824407	-0.649708	-1.362703
H 	0.908626	-0.715657	-1.326401
H 	-0.844749	1.327045	0.245483
