12
03/25/2019 10:01, XYZ structure generated by mol3D Class, molSimplify
O 	1.389706	-1.192150	0.173130
C 	1.188103	0.048050	-0.440578
C 	0.920150	1.198642	0.455695
C 	-0.222301	0.669211	-0.353540
C 	-1.216581	-0.215348	0.286220
O 	-2.337346	-0.328809	-0.122005
H 	0.857837	-1.823836	-0.384933
H 	1.734966	0.213330	-1.367950
H 	1.343267	2.136395	0.127479
H 	0.886832	1.068383	1.559616
H 	-0.525273	1.264798	-1.203896
H 	-0.801204	-0.788900	1.177048
