13
03/25/2019 10:01, XYZ structure generated by mol3D Class, molSimplify
O 	2.619269	-0.032053	0.406723
C 	1.497649	-0.249452	-0.216913
N 	0.440336	0.570055	-0.224336
C 	-0.849753	0.122994	-0.619312
C 	-1.596162	-0.899923	0.204990
C 	-1.862806	0.483710	0.407652
H 	1.378511	-1.202521	-0.936557
H 	0.564177	1.526579	0.081338
H 	-1.221529	0.429248	-1.666467
H 	-1.156626	-1.464823	1.017267
H 	-2.435396	-1.419808	-0.341043
H 	-1.483556	0.965362	1.304391
H 	-2.895659	0.880805	0.079622
