13
02/13/2019 22:15, XYZ structure generated by mol3D Class, molSimplify
C 	1.891914	0.001635	-0.000920
N 	0.628474	-0.699760	0.001530
C 	-0.617959	-0.113904	-0.000079
C 	-0.629686	1.392900	0.000027
N 	-1.736012	-0.738262	-0.000862
H 	2.013983	0.634915	-0.888359
H 	2.696649	-0.737254	-0.006295
H 	2.022625	0.627998	0.890031
H 	0.653735	-1.706414	0.004856
H 	-0.121974	1.794854	-0.884217
H 	-1.668716	1.722044	-0.001763
H 	-0.125145	1.794262	0.887367
H 	-1.586011	-1.751045	0.000657
