13
02/13/2019 22:15, XYZ structure generated by mol3D Class, molSimplify
C 	0.025118	1.257548	-0.065265
C 	1.232668	0.386712	0.069073
C 	0.619408	-1.122796	-0.054926
C 	-0.701377	-1.112638	-0.020937
C 	-1.185135	0.294373	0.045233
H 	-0.011948	2.035815	0.724214
H 	-0.020903	1.797982	-0.971203
H 	1.842144	0.584285	0.994426
H 	2.029104	0.518120	-0.626109
H 	1.213864	-1.989608	-0.126365
H 	-1.272989	-2.030684	0.083623
H 	-1.714253	0.487367	0.982636
H 	-1.954071	0.396806	-0.741860
