14
02/13/2019 22:15, XYZ structure generated by mol3D Class, molSimplify
N 	1.955434	0.367596	0.160611
C 	0.925853	-0.587344	-0.214756
C 	-0.305463	-0.236857	0.459575
C 	-1.151472	0.923826	-0.183350
C 	-1.689605	-0.507420	-0.046254
H 	2.901855	-0.094859	-0.019905
H 	1.785101	1.155327	-0.567307
H 	0.814306	-0.680383	-1.268914
H 	1.239152	-1.579202	0.189853
H 	-0.316005	-0.262180	1.505560
H 	-1.604692	1.730620	0.428422
H 	-0.981636	1.191872	-1.252434
H 	-2.430524	-0.595618	0.701711
H 	-1.727994	-1.061157	-0.967223
