12
03/25/2019 10:01, XYZ structure generated by mol3D Class, molSimplify
C 	0.135276	1.660680	-0.310513
C 	-0.075052	0.321295	0.527379
C 	1.152678	-0.443907	0.216633
C 	2.281895	-0.791607	-0.312040
C 	-1.242435	-0.456016	0.223813
C 	-2.294288	-0.947762	-0.182811
H 	0.853522	1.213665	-1.311707
H 	-0.972920	2.270841	-0.653985
H 	0.849568	2.332733	0.288158
H 	-0.196105	0.568669	1.582286
H 	3.293166	-1.166131	-0.590104
H 	-3.328022	-1.076051	-0.706628
