8
02/13/2019 22:15, XYZ structure generated by mol3D Class, molSimplify
C 	-0.671727	-0.878508	-0.000748
N 	0.700009	-1.003642	0.031909
C 	1.023135	0.259787	-0.009497
N 	0.032351	1.071304	-0.046305
N 	-1.139796	0.327434	0.016626
H 	-1.284310	-1.766215	-0.199309
H 	2.012265	0.621056	-0.083699
H 	0.041099	2.093132	0.374007
