10
03/25/2019 10:02, XYZ structure generated by mol3D Class, molSimplify
O 	2.020842	-0.127336	-0.008152
N 	0.565580	-0.024299	0.028834
C 	-0.139596	1.106077	-0.006971
C 	-1.404997	0.710034	0.032262
C 	-1.380322	-0.736646	-0.027463
N 	-0.104554	-1.149227	0.015007
H 	2.263599	0.845676	-0.182187
H 	0.317268	2.139521	-0.023075
H 	-2.277037	1.336773	-0.127029
H 	-2.138636	-1.529875	-0.121656
