14
03/25/2019 10:01, XYZ structure generated by mol3D Class, molSimplify
C 	-2.948023	-0.090323	0.160549
O 	-1.629449	-0.572958	0.025648
C 	-0.730929	0.556521	-0.201522
C 	0.673607	0.111312	-0.137992
C 	1.912467	0.073554	0.035366
C 	3.375511	-0.137836	0.100750
H 	-3.649890	-0.919025	0.348172
H 	-3.296125	0.320392	-0.838090
H 	-3.045519	0.688973	1.017470
H 	-0.940922	1.357321	0.563740
H 	-0.850113	1.068130	-1.245196
H 	4.091083	1.756300	-0.012120
H 	3.530760	-1.055897	1.800412
H 	3.634665	-1.206089	-1.531267
