8
02/13/2019 22:15, XYZ structure generated by mol3D Class, molSimplify
N 	-2.211796	0.049685	-0.293918
C 	-1.126588	0.018687	0.213074
C 	0.253319	-0.160220	0.597701
C 	1.398878	0.695218	-0.025777
O 	1.060990	-0.655514	-0.498347
H 	0.352371	-0.700378	1.527096
H 	2.455809	0.657496	0.510336
H 	1.261813	1.510359	-0.724717
