9
02/11/2019 18:37, XYZ structure generated by mol3D Class, molSimplify
N 	-1.746858	-0.034342	0.077622
N 	-0.447352	0.445415	-0.119006
C 	0.658216	-0.374937	-0.049388
N 	1.885105	-0.053164	0.049528
H 	-1.783603	-0.672636	0.868079
H 	-2.055331	-0.525600	-0.754605
H 	-0.336321	1.414667	0.144591
H 	0.394823	-1.435201	-0.124832
H 	1.994672	0.962909	0.107446
