10
02/13/2019 22:15, XYZ structure generated by mol3D Class, molSimplify
N 	-1.859792	0.083662	-0.003070
N 	-0.654450	-0.590434	-0.059719
C 	0.502611	0.142487	0.037749
N 	1.644201	-0.624959	-0.045127
O 	0.541108	1.368074	0.014079
H 	-2.321545	-0.101568	0.883631
H 	-2.386879	-0.387914	-0.786946
H 	-0.624145	-1.581323	0.428844
H 	1.503531	-1.663085	0.181929
H 	2.608377	-0.279388	0.119023
