16
02/13/2019 22:15, XYZ structure generated by mol3D Class, molSimplify
C 	-2.480562	-0.324961	0.176388
C 	-1.193061	0.522933	-0.092573
C 	0.079738	-0.319730	-0.184381
N 	1.235100	0.549375	-0.124152
C 	2.403296	-0.291255	0.094172
H 	-3.259721	0.378627	-0.231385
H 	-2.510371	-1.247825	-0.466933
H 	-2.792533	-0.652348	1.295883
H 	-1.313077	1.117231	-1.068836
H 	-1.167267	1.313530	0.684878
H 	0.033368	-1.032335	0.709921
H 	0.079706	-0.856736	-1.150494
H 	1.109914	1.048756	0.751781
H 	3.258938	0.433890	0.637353
H 	2.626808	-0.687563	-0.881965
H 	2.176510	-1.158143	0.812954
