14
02/13/2019 22:15, XYZ structure generated by mol3D Class, molSimplify
N 	2.022888	0.314167	0.139864
C 	0.927594	-0.591085	-0.193592
C 	-0.341033	-0.137660	0.485691
C 	-1.204232	0.897876	-0.180819
C 	-1.674896	-0.526073	-0.077840
H 	2.877531	0.017747	-0.321413
H 	1.808421	1.243165	-0.212539
H 	0.732131	-0.681475	-1.278679
H 	1.196468	-1.593625	0.161309
H 	-0.261000	-0.073563	1.569194
H 	-1.687267	1.648177	0.438033
H 	-0.900313	1.257313	-1.161860
H 	-2.481210	-0.752600	0.613116
H 	-1.686572	-1.123871	-0.986131
