11
02/13/2019 22:15, XYZ structure generated by mol3D Class, molSimplify
N 	1.874681	-0.714836	-0.068627
N 	1.268062	0.603415	-0.069998
C 	-0.115816	0.689715	-0.108819
N 	-0.875096	-0.346274	0.003350
N 	-2.258819	-0.278817	0.162084
H 	2.934422	-0.605836	-0.023071
H 	1.561254	-1.241055	0.856562
H 	1.740937	1.250685	0.568278
H 	-0.434527	1.707679	-0.158421
H 	-2.613639	0.991356	0.323642
H 	-2.503175	-0.888838	-0.950587
