15
03/25/2019 10:01, XYZ structure generated by mol3D Class, molSimplify
C 	-0.810123	1.279389	-0.669651
C 	-0.318146	-0.023242	0.010072
C 	-0.894870	-1.270211	-0.606878
N 	-0.846850	-0.012094	1.394597
C 	1.179007	-0.018406	-0.017089
C 	2.384923	0.068951	-0.140593
H 	-0.398726	1.375663	-1.701308
H 	-0.493125	2.142002	-0.118400
H 	-1.900303	1.288479	-0.781305
H 	-0.515609	-2.160811	-0.085214
H 	-0.519100	-1.381427	-1.633396
H 	-1.984699	-1.191375	-0.637873
H 	-0.648048	-0.969429	1.824476
H 	-0.257286	0.602795	2.037621
H 	3.465284	0.027694	-0.035079
