8
03/25/2019 10:02, XYZ structure generated by mol3D Class, molSimplify
O 	-2.038535	0.027527	0.055991
C 	-0.825342	-0.052797	-0.020949
N 	0.042267	-1.183889	-0.033547
N 	1.275118	-0.799451	0.011553
N 	1.338041	0.550357	0.047317
N 	0.094074	1.011660	-0.111399
H 	2.166875	1.047903	0.310436
H 	-0.202277	1.981006	0.246318
