17
03/25/2019 10:01, XYZ structure generated by mol3D Class, molSimplify
C 	-2.570779	0.634968	0.507748
C 	-1.863239	-0.448909	-0.365985
C 	-0.368738	-0.171821	-0.619033
C 	0.535446	-0.853135	0.077012
C 	2.056876	-0.402393	0.298143
N 	2.263836	0.954301	-0.159308
H 	-2.312442	1.620574	0.062548
H 	-3.669225	0.493110	0.460077
H 	-2.311095	0.694470	1.565579
H 	-2.048957	-1.421070	0.002219
H 	-2.395753	-0.543128	-1.348582
H 	-0.075550	0.704707	-1.200922
H 	0.346485	-1.705587	0.729921
H 	2.708921	-1.107547	-0.232441
H 	2.283183	-0.601230	1.358924
H 	1.476542	1.618706	0.374004
H 	3.274397	1.190755	0.497099
