9
02/13/2019 22:15, XYZ structure generated by mol3D Class, molSimplify
O 	1.872214	-0.000762	-0.195197
C 	0.741137	-0.756099	0.224275
C 	-0.566527	0.132950	0.081774
O 	-1.761158	-0.445995	-0.162696
O 	-0.409023	1.329109	0.108033
H 	1.532521	0.925937	-0.256579
H 	0.658899	-1.739695	-0.398239
H 	0.784000	-1.117267	1.344620
H 	-1.559243	-1.384506	-0.368877
