13
02/13/2019 22:15, XYZ structure generated by mol3D Class, molSimplify
C 	-1.764168	-0.665514	0.018805
C 	-0.398696	-0.040473	0.000618
C 	-0.290179	1.462910	-0.018119
N 	0.612954	-0.821441	-0.017102
N 	1.863268	-0.225537	-0.085493
H 	-1.670270	-1.753365	0.014260
H 	-2.329765	-0.357218	0.906368
H 	-2.345519	-0.353914	-0.858737
H 	0.385513	1.781505	-0.819346
H 	0.113132	1.852938	0.926906
H 	-1.266053	1.929774	-0.173134
H 	2.547987	-0.914282	0.200740
H 	1.952716	0.600052	0.501121
