17
03/25/2019 10:01, XYZ structure generated by mol3D Class, molSimplify
C 	1.435286	1.441234	-0.035607
C 	1.012879	-0.007690	-0.021732
C 	2.160650	-1.051926	0.096666
C 	-0.235137	-0.431284	-0.147915
C 	-1.559961	0.397371	-0.225157
N 	-2.746440	-0.492617	0.244564
H 	0.536575	2.084198	-0.255002
H 	2.163994	1.635862	-0.840653
H 	2.049201	1.664572	0.787447
H 	3.148373	-0.831704	-0.519399
H 	2.603242	-1.175930	1.103992
H 	1.798135	-2.094594	-0.239443
H 	-0.493397	-1.554341	-0.098458
H 	-1.619129	0.781762	-1.415918
H 	-1.381964	1.375600	0.490622
H 	-3.618551	-0.154248	-0.170340
H 	-2.766212	-0.545855	1.301763
