12
02/13/2019 22:15, XYZ structure generated by mol3D Class, molSimplify
C 	1.741077	-0.617081	-0.000109
C 	0.364825	-0.019602	0.010200
C 	0.216710	1.480047	0.017344
N 	-0.587217	-0.861397	0.026452
O 	-1.860508	-0.358537	-0.057159
H 	2.224674	-0.568113	-0.996477
H 	2.476041	-0.158713	0.740248
H 	1.599381	-1.692787	0.147741
H 	-0.175133	1.793263	1.009603
H 	-0.440681	1.794177	-0.784400
H 	1.199416	1.965740	-0.171045
H 	-1.829433	0.603901	0.267280
