13
02/13/2019 22:15, XYZ structure generated by mol3D Class, molSimplify
C 	-1.314543	-0.957450	0.037464
C 	-0.159631	0.046376	-0.054068
O 	-0.503688	1.428391	-0.116735
C 	1.050635	-0.255257	0.807800
C 	1.134850	-0.232916	-0.773118
H 	-1.071386	-2.049541	-0.329745
H 	-2.248741	-0.639934	-0.694641
H 	-1.701460	-0.918835	1.127499
H 	-0.978341	1.852547	0.579632
H 	1.449632	0.626229	1.228299
H 	1.233146	-1.134821	1.525003
H 	1.375741	-1.279927	-1.293966
H 	1.697215	0.566643	-1.292539
