13
02/13/2019 22:15, XYZ structure generated by mol3D Class, molSimplify
C 	1.804286	0.042841	0.019475
N 	0.630009	-0.765034	0.107349
C 	-0.565994	-0.143143	-0.000012
C 	-0.611633	1.397526	-0.087061
N 	-1.702834	-0.696861	-0.006075
H 	1.185655	1.667528	-0.249459
H 	2.552378	-0.815894	-1.454755
H 	2.674872	-0.277053	1.560490
H 	0.676372	-1.726144	0.214799
H 	-0.212191	1.752796	-1.046392
H 	-1.692730	1.612592	-0.070955
H 	-0.032474	2.036741	0.618461
H 	-1.539382	-1.737080	-0.174461
