13
02/13/2019 22:15, XYZ structure generated by mol3D Class, molSimplify
C 	1.935865	0.230591	0.022234
O 	0.854216	-0.669694	-0.201998
C 	-0.269415	-0.157898	0.435505
C 	-1.128084	0.896398	-0.155320
C 	-1.654841	-0.485433	-0.107961
H 	1.438103	1.331545	0.165078
H 	2.435756	0.026243	0.973565
H 	2.648085	0.239902	-1.049479
H 	-0.177131	0.082726	1.559209
H 	-1.657015	1.658532	0.489015
H 	-0.939889	1.184769	-1.205606
H 	-2.511305	-0.904914	0.490076
H 	-1.581692	-0.946543	-1.085395
