14
03/25/2019 10:01, XYZ structure generated by mol3D Class, molSimplify
C 	2.348502	0.137416	0.090138
O 	1.156724	-0.516959	-0.363551
C 	0.048482	-0.147846	0.396653
C 	-0.810157	1.043730	-0.113081
O 	-1.970111	0.284914	-0.090553
C 	-1.203471	-0.932935	0.016781
H 	3.144614	0.021755	-0.725504
H 	2.117589	1.312705	0.228961
H 	2.857114	-0.317928	1.072813
H 	0.332865	-0.122990	1.497435
H 	-0.835691	2.012035	0.459338
H 	-0.425369	1.291591	-1.112393
H 	-1.710754	-1.563553	0.782369
H 	-1.092674	-1.416701	-0.975979
