16
03/25/2019 10:01, XYZ structure generated by mol3D Class, molSimplify
C 	1.499108	-1.229550	-0.198734
C 	1.000558	0.160863	0.089133
C 	1.666769	1.251027	-0.295251
C 	-0.331962	0.265560	0.805450
C 	-1.455109	-0.457245	0.090993
C 	-2.493800	0.162285	-0.453181
H 	0.833165	-1.738118	-0.915803
H 	1.511912	-1.844815	0.722686
H 	2.515046	-1.212265	-0.596399
H 	1.260757	2.256158	-0.120119
H 	2.614312	1.189906	-0.825637
H 	-0.217634	-0.189109	1.806383
H 	-0.588484	1.322367	0.946025
H 	-1.386522	-1.552320	0.073098
H 	-3.298127	-0.389367	-0.934417
H 	-2.614023	1.236805	-0.418241
