13
02/13/2019 22:15, XYZ structure generated by mol3D Class, molSimplify
C 	1.893118	0.269275	0.019574
O 	0.813875	-0.592019	-0.250398
C 	-0.282383	-0.221813	0.419775
C 	-1.052226	0.925777	-0.088830
C 	-1.640580	-0.576898	-0.113106
H 	1.854874	1.236692	-0.529933
H 	1.931967	0.559533	1.130114
H 	2.679133	-0.342475	-0.346934
H 	-0.133065	-0.341257	1.485024
H 	-1.576317	1.862158	0.356529
H 	-0.619465	1.205599	-1.078661
H 	-2.394688	-0.615616	0.666127
H 	-1.856927	-1.085453	-1.089118
