14
02/13/2019 22:15, XYZ structure generated by mol3D Class, molSimplify
N 	-1.658874	-0.737101	0.247190
C 	-1.218181	0.335359	-0.568051
C 	-0.020154	1.020982	0.069445
C 	1.194302	0.249299	0.561215
O 	1.586263	-0.874238	-0.300934
H 	-1.447372	-0.516115	1.351720
H 	-1.036378	-1.684590	-0.187745
H 	-0.963791	0.107753	-1.660350
H 	-2.023680	1.037199	-0.636018
H 	-0.316820	1.746261	0.903948
H 	0.324197	1.757377	-0.722369
H 	2.078098	0.886439	0.693334
H 	0.869415	-0.194904	1.445939
H 	1.771057	-0.546619	-1.235005
