8
02/13/2019 22:15, XYZ structure generated by mol3D Class, molSimplify
O 	1.268755	-0.822061	-0.001675
N 	1.220263	0.535800	0.002056
C 	0.034158	1.020439	0.001352
C 	-1.269885	0.299792	-0.003609
O 	-1.419368	-0.898341	0.002753
H 	2.218622	-1.001057	-0.008408
H 	0.002283	2.107522	0.000742
H 	-2.142217	0.985381	-0.011159
