16
03/25/2019 10:01, XYZ structure generated by mol3D Class, molSimplify
C 	-1.472212	-1.162953	-0.477233
C 	-1.176502	-0.060138	0.629035
C 	0.023147	0.745958	0.143876
C 	-0.070055	2.098721	-0.083833
C 	1.350374	0.007964	-0.121019
C 	1.712872	-1.287673	0.000137
H 	-2.130365	-1.869890	0.060394
H 	-0.711837	-1.840950	-0.853577
H 	-1.951580	-0.793209	-1.389504
H 	-1.966928	0.561674	0.904846
H 	-0.786298	-0.498210	1.549059
H 	0.685471	2.665910	-0.704355
H 	-1.025545	2.511309	0.293316
H 	2.085040	0.782750	-0.524265
H 	2.710907	-1.690639	-0.361565
H 	1.066604	-2.090267	0.363114
