14
02/13/2019 22:15, XYZ structure generated by mol3D Class, molSimplify
N 	2.050501	0.338890	0.077595
C 	0.894517	-0.655945	-0.122678
C 	-0.348060	-0.142880	0.512498
C 	-1.203734	0.942086	-0.129827
C 	-1.678807	-0.523883	-0.130133
H 	2.845095	0.074267	-0.498762
H 	1.787640	1.282591	-0.346560
H 	0.704925	-0.993928	-1.173848
H 	1.348172	-1.596714	0.313882
H 	-0.280554	0.003605	1.574289
H 	-1.903068	1.484804	0.424443
H 	-0.882302	1.512308	-1.005674
H 	-2.627217	-0.847702	0.294419
H 	-1.260013	-1.039525	-1.044019
