10
02/13/2019 22:15, XYZ structure generated by mol3D Class, molSimplify
C 	1.171928	-0.023739	-0.086039
C 	0.327629	1.179456	0.066363
C 	-1.022648	0.548858	-0.055092
N 	-1.072422	-0.717032	0.003153
O 	0.265698	-1.202129	0.073182
H 	1.622608	-0.063586	-1.116920
H 	1.881142	-0.121530	0.725837
H 	0.629550	1.939837	-0.684521
H 	0.363332	1.607752	1.040158
H 	-2.001503	1.046153	-0.279563
