12
02/13/2019 22:15, XYZ structure generated by mol3D Class, molSimplify
C 	-1.794829	0.593408	-0.003853
O 	-1.308520	-0.669583	-0.042965
N 	0.082627	-0.794918	0.076072
C 	0.784115	0.274359	0.022491
C 	2.269236	0.187850	-0.044754
H 	-1.598955	1.170366	0.940920
H 	-1.479001	1.141498	-0.942805
H 	-2.895077	0.440454	-0.033006
H 	0.526251	1.339996	0.138647
H 	2.725081	-0.219036	-1.048327
H 	2.571686	1.228890	0.028213
H 	2.571362	-0.371433	0.852272
