11
02/13/2019 22:15, XYZ structure generated by mol3D Class, molSimplify
C 	-2.381926	-0.174012	0.079012
C 	-1.171794	0.384653	0.034491
N 	0.015070	-0.350438	-0.121230
C 	1.247461	0.339568	-0.082378
N 	2.436081	-0.065688	0.101637
H 	-3.199089	0.523678	-0.015383
H 	-2.534090	-1.283116	-0.137813
H 	-1.103952	1.455191	0.066881
H 	-0.115264	-1.340558	-0.102377
H 	1.137992	1.396158	-0.059663
H 	2.477470	-1.106009	0.149989
