9
02/13/2019 22:15, XYZ structure generated by mol3D Class, molSimplify
O 	1.927313	-0.030349	0.261029
C 	0.638626	-0.714462	-0.313267
C 	-0.513122	0.137014	-0.053545
O 	-1.732351	-0.460799	0.182563
O 	-0.460398	1.330243	-0.140508
H 	1.749153	0.941497	0.107901
H 	0.784511	-0.926418	-1.488789
H 	0.522450	-1.727342	0.300368
H 	-1.571524	-1.460905	0.637449
