16
03/25/2019 10:01, XYZ structure generated by mol3D Class, molSimplify
C 	-2.011083	0.139592	-0.598068
O 	-1.383876	-0.080544	0.666915
C 	0.024206	-0.017595	0.647717
C 	0.875790	-1.111580	-0.000777
C 	1.916219	0.008578	-0.302406
C 	0.763721	1.052508	-0.156387
H 	-2.007084	1.269335	-0.916018
H 	-3.085696	-0.229411	-0.384919
H 	-1.556278	-0.524016	-1.450071
H 	0.298954	0.064624	1.705177
H 	1.232753	-1.933716	0.644826
H 	0.460298	-1.493280	-0.937326
H 	2.395563	-0.090924	-1.293450
H 	2.652955	0.080599	0.500996
H 	0.974573	1.989728	0.392701
H 	0.280776	1.293922	-1.082732
