10
02/13/2019 22:15, XYZ structure generated by mol3D Class, molSimplify
N 	-2.201384	-0.030354	-0.284744
C 	-1.164921	0.047507	0.205175
C 	0.204341	0.008485	0.606518
C 	1.249478	0.726508	-0.229647
C 	1.262961	-0.747332	-0.255248
H 	0.372993	0.020052	1.668459
H 	2.003415	1.310611	0.290341
H 	0.825846	1.182162	-1.119704
H 	0.788049	-1.143349	-1.158144
H 	1.996295	-1.366455	0.300912
