13
02/13/2019 22:15, XYZ structure generated by mol3D Class, molSimplify
O 	2.043538	0.310593	-0.057844
C 	0.911928	-0.554421	-0.216222
C 	-0.315777	-0.033184	0.551649
C 	-1.619260	-0.581836	-0.085814
C 	-1.249175	0.917884	-0.190034
H 	2.350223	0.310225	0.833367
H 	1.100120	-1.634824	0.088410
H 	0.616392	-0.598909	-1.298455
H 	-0.228079	0.002461	1.625123
H 	-1.382397	-1.189227	-0.957047
H 	-2.444616	-0.876989	0.538360
H 	-1.800185	1.628248	0.313574
H 	-0.929888	1.232105	-1.252580
