15
02/13/2019 22:15, XYZ structure generated by mol3D Class, molSimplify
C 	2.110337	0.266788	0.009445
C 	0.911815	-0.630817	-0.135233
C 	-0.338147	-0.128689	0.462367
C 	-1.285752	0.928758	-0.154433
C 	-1.692478	-0.492214	-0.112557
H 	2.954807	-0.161905	-0.453727
H 	2.344264	0.690099	1.025091
H 	1.904520	1.195712	-0.631396
H 	0.696833	-0.734450	-1.234868
H 	1.060278	-1.629557	0.280635
H 	-0.289208	-0.045795	1.529882
H 	-1.053252	1.340607	-1.104680
H 	-1.792655	1.567946	0.584664
H 	-2.512825	-0.864572	0.576833
H 	-1.647082	-1.015187	-1.055182
