9
02/13/2019 22:15, XYZ structure generated by mol3D Class, molSimplify
C 	-1.143394	0.028046	0.198927
O 	-0.302640	1.154767	-0.226066
C 	0.938601	0.628693	0.131143
C 	1.011371	-0.676552	0.143274
O 	-0.301020	-1.134090	-0.225468
H 	-1.195904	0.051598	1.569267
H 	-2.338812	-0.126452	-0.329818
H 	1.629456	1.427376	0.241358
H 	1.873388	-1.444766	0.049318
