9
02/11/2019 18:17, XYZ structure generated by mol3D Class, molSimplify
C 	-1.208355	-0.201527	0.091837
O 	0.003564	0.599724	-0.110187
C 	1.194745	-0.212115	-0.000122
H 	-1.314559	-1.144266	-0.658220
H 	-2.088224	0.504417	-0.109431
H 	-1.358328	-0.531465	1.231316
H 	1.022669	-1.426758	0.507457
H 	2.081093	0.490387	1.010372
H 	1.762833	-0.132189	-1.324784
