16
03/25/2019 10:01, XYZ structure generated by mol3D Class, molSimplify
C 	-1.094114	1.059677	0.837216
C 	-0.728516	0.243301	-0.387806
O 	-1.628359	-0.851185	-0.448384
C 	0.730256	-0.245353	-0.386411
C 	1.095434	-1.060761	0.837837
O 	1.625711	0.853633	-0.448467
H 	-2.087199	1.501631	0.714898
H 	-1.112596	0.423275	1.727582
H 	-0.360213	1.856913	0.989033
H 	-0.852480	0.879826	-1.283960
H 	-1.443245	-1.341720	-1.260060
H 	0.859189	-0.880873	-1.281377
H 	0.360663	-1.858741	0.985005
H 	2.088949	-1.497681	0.716534
H 	1.111337	-0.423037	1.725916
H 	1.441186	1.338884	-1.262152
