9
02/13/2019 22:15, XYZ structure generated by mol3D Class, molSimplify
O 	-1.611976	-0.845989	-0.271170
C 	-1.431303	0.409188	0.137526
C 	0.028916	0.892038	0.054753
C 	0.981537	-0.271501	0.366196
O 	2.072020	-0.295379	-0.277153
H 	-2.340547	1.143209	0.506641
H 	0.268706	1.166963	-1.126860
H 	0.279717	1.875634	0.724384
H 	0.584224	-1.038561	1.321165
