14
02/13/2019 22:15, XYZ structure generated by mol3D Class, molSimplify
C 	1.856393	0.051434	0.218294
C 	0.472218	-0.027152	-0.437835
C 	-0.534458	-1.046136	-0.048540
N 	-1.575563	-0.001752	0.073012
C 	-0.481367	1.055506	-0.002014
H 	1.868468	0.263172	1.335333
H 	2.244990	-1.094455	0.203173
H 	2.547814	0.770110	-0.299900
H 	0.605049	-0.027359	-1.473298
H 	-0.702141	-1.849299	-0.783246
H 	-0.227251	-1.694193	0.922055
H 	-2.173786	-0.115530	0.880184
H 	-0.156250	1.487945	0.979972
H 	-0.750041	1.883277	-0.714005
