14
03/25/2019 10:01, XYZ structure generated by mol3D Class, molSimplify
C 	-2.881555	-0.338493	-0.001110
C 	-1.661116	0.574032	-0.002875
C 	-0.365218	-0.190772	-0.009225
N 	0.760440	0.407309	0.012673
N 	1.830145	-0.516718	0.011531
C 	2.957550	0.070774	-0.009944
H 	-2.879418	-0.990736	0.878785
H 	-2.901582	-0.980475	-0.885748
H 	-3.807379	0.243306	0.014337
H 	-1.683820	1.233605	-0.880814
H 	-1.669115	1.228442	0.877339
H 	-0.390369	-1.288627	-0.016950
H 	3.050224	1.158725	-0.031018
H 	3.850787	-0.549423	-0.016548
