15
02/13/2019 22:15, XYZ structure generated by mol3D Class, molSimplify
C 	-1.987003	-0.528393	-0.096410
C 	-0.596899	0.021847	0.558833
C 	-0.033949	1.243392	-0.054418
C 	0.659026	-0.020443	-0.427326
C 	1.963996	-0.540917	0.045418
H 	-1.827724	-0.304070	-1.164744
H 	-2.905311	-0.092224	0.349927
H 	-2.026731	-1.633926	0.097819
H 	-0.352878	-0.249951	1.594872
H 	-0.589453	1.726889	-0.896167
H 	0.378677	1.825354	0.702394
H 	0.425485	-0.440798	-1.395716
H 	2.029202	-1.593614	-0.572368
H 	2.027941	-0.928418	1.317764
H 	2.779221	0.258435	-0.344511
