10
02/13/2019 22:15, XYZ structure generated by mol3D Class, molSimplify
O 	0.447651	1.812176	-0.048025
C 	0.046974	0.648597	0.036225
C 	-0.185921	-0.433878	1.073119
N 	0.019144	-1.415109	0.013543
C 	-0.187569	-0.391063	-1.065996
H 	0.548073	-0.463962	1.882466
H 	-1.148325	-0.380933	1.533353
H 	-0.795098	-2.090146	-0.178160
H 	-1.216943	-0.365681	-1.381052
H 	0.723648	-0.150527	-1.798712
