11
02/13/2019 22:15, XYZ structure generated by mol3D Class, molSimplify
C 	1.113624	1.175089	-0.145104
C 	0.409517	-0.074493	0.383134
O 	0.917491	-1.252505	-0.222170
C 	-1.033884	-0.017990	0.109856
C 	-2.214353	0.061467	-0.106012
H 	2.184433	1.130942	0.083764
H 	0.987374	1.237183	-1.229023
H 	0.699865	2.078923	0.312146
H 	0.540579	-0.126537	1.476075
H 	1.860936	-1.289663	-0.020308
H 	-3.262077	0.122972	-0.302224
