11
02/13/2019 22:15, XYZ structure generated by mol3D Class, molSimplify
N 	-2.041350	-0.532018	0.113256
N 	-1.366484	0.706543	0.001781
C 	-0.065590	0.720118	-0.213719
C 	0.878865	-0.497230	-0.320070
O 	2.376144	-0.102070	0.337597
H 	-2.920734	-0.484040	0.865842
H 	-1.349344	-1.452786	0.367398
H 	0.299746	1.726620	-0.363983
H 	0.470014	-1.694460	0.220484
H 	0.933996	-0.824417	-1.709304
H 	2.792304	1.131178	-0.133077
