13
02/13/2019 22:15, XYZ structure generated by mol3D Class, molSimplify
C 	1.935177	0.230191	-0.009667
O 	0.824934	-0.612673	-0.218486
C 	-0.298307	-0.175251	0.472550
C 	-1.136742	0.912122	-0.135136
C 	-1.613480	-0.521469	-0.130615
H 	1.724859	1.258909	-0.338905
H 	2.227549	0.255305	1.051080
H 	2.762330	-0.176921	-0.595986
H 	-0.198261	-0.197821	1.561193
H 	-1.625149	1.627205	0.521085
H 	-0.803615	1.313755	-1.087132
H 	-2.428748	-0.803690	0.529879
H 	-1.576507	-1.056223	-1.074914
