12
02/13/2019 22:15, XYZ structure generated by mol3D Class, molSimplify
C 	-1.620483	-0.860562	0.128275
C 	-1.250367	0.507199	-0.352187
C 	0.193718	1.009197	0.210397
C 	1.340048	0.002004	0.095568
N 	2.240994	-0.699575	-0.107402
H 	-1.643426	-1.101162	1.270664
H 	-0.863694	-1.614780	-0.304065
H 	-2.657093	-1.169271	-0.330762
H 	-2.014991	1.117249	0.095809
H 	-1.262978	0.479303	-1.487841
H 	0.172970	1.310161	1.288019
H 	0.474527	1.832718	-0.457277
