14
03/25/2019 10:01, XYZ structure generated by mol3D Class, molSimplify
C 	2.864707	-0.434000	-0.014224
C 	1.620613	0.388445	0.087405
C 	0.374674	-0.061891	-0.073551
C 	-0.796986	0.835998	-0.028577
N 	-2.025253	0.503327	-0.030772
N 	-2.315262	-0.833284	-0.038102
H 	3.499013	-0.075892	-0.825151
H 	3.460807	-0.402107	0.908217
H 	2.646966	-1.483851	-0.228776
H 	1.784763	1.449153	0.347327
H 	0.217046	-1.095300	-0.367845
H 	-0.580902	1.909760	-0.029061
H 	-1.710355	-1.378896	0.567086
H 	-3.271527	-0.979401	0.261408
