10
02/11/2019 18:37, XYZ structure generated by mol3D Class, molSimplify
C 	1.744721	-0.139934	0.000158
N 	0.409974	0.396293	-0.000016
N 	-0.624966	-0.445471	-0.000268
C 	-1.810761	0.027741	0.000012
H 	2.449650	0.695634	-0.000732
H 	1.934846	-0.752300	-0.889870
H 	1.935322	-0.751415	0.890531
H 	0.248140	1.395369	0.000136
H 	-2.027192	1.102570	0.000866
H 	-2.639645	-0.671942	0.000991
