12
02/13/2019 22:15, XYZ structure generated by mol3D Class, molSimplify
C 	-1.754695	-0.791643	-0.121293
N 	-0.313400	-0.059872	0.094687
N 	-0.466653	1.328732	0.129751
C 	0.937278	-0.582839	0.200912
N 	2.125711	0.164864	-0.312824
H 	-1.528867	-1.928329	-0.220409
H 	-2.251767	-0.189232	-1.159064
H 	-2.707613	-0.697513	0.834194
H 	-1.960515	1.636735	0.849922
H 	-0.471714	1.753203	-1.440908
H 	0.830097	-1.676199	0.707886
H 	2.895850	-0.530634	-0.215877
