14
03/25/2019 10:01, XYZ structure generated by mol3D Class, molSimplify
C 	2.344426	0.119999	0.063314
C 	1.058506	-0.743167	0.255229
N 	-0.080760	-0.080412	-0.432635
O 	-0.097000	1.253487	0.020818
C 	-1.375972	-0.726221	-0.101403
N 	-2.434314	-0.101652	0.193517
H 	2.450984	0.951647	1.310914
H 	3.294798	-0.791833	-0.196399
H 	2.008139	1.183923	-1.141868
H 	0.786340	-0.876321	1.317361
H 	1.050450	-1.683503	-0.239885
H 	0.043551	1.777690	-0.795442
H 	-1.262652	-1.839073	0.060363
H 	-2.453759	0.974311	0.143437
