11
03/25/2019 10:02, XYZ structure generated by mol3D Class, molSimplify
O 	-2.047307	0.012463	0.001010
C 	-0.836126	0.013090	-0.000737
C 	0.115824	1.212388	-0.000561
C 	1.481918	0.583079	0.000724
C 	1.335564	-0.742831	0.000400
N 	-0.022428	-1.102521	-0.000270
H 	-0.086005	1.833757	0.879746
H 	-0.084378	1.826630	-0.884528
H 	2.421988	1.119168	0.002259
H 	2.092301	-1.520083	-0.001315
H 	-0.393703	-2.039317	-0.006366
