16
03/25/2019 10:01, XYZ structure generated by mol3D Class, molSimplify
C 	-1.953066	0.451594	-0.543873
O 	-1.425073	-0.392469	0.705773
C 	-0.005614	0.037365	0.624419
C 	0.975955	-1.173409	0.147615
C 	1.889116	0.033313	-0.223820
C 	0.704916	1.011915	-0.430567
H 	-2.326091	2.180888	-0.160965
H 	-3.064918	-0.413440	-0.390137
H 	-1.234405	0.388405	-2.127904
H 	0.334310	0.350940	1.653592
H 	1.272413	-2.002990	0.800189
H 	0.726276	-1.535341	-0.938045
H 	2.497089	-0.193804	-1.194313
H 	2.618404	0.286661	0.679328
H 	0.711665	2.022122	0.003429
H 	0.260377	0.849576	-1.568560
