8
02/11/2019 18:07, XYZ structure generated by mol3D Class, molSimplify
C 	0.758700	0.005746	0.010255
C 	-0.752009	-0.003621	-0.004545
H 	1.041693	0.892399	-0.224345
H 	1.261960	-0.140006	0.954756
H 	1.129095	-0.776157	-0.775510
H 	-1.186652	0.733344	0.591058
H 	-1.212418	-1.022752	0.422088
H 	-1.116740	0.280003	-1.014819
