8
02/13/2019 22:15, XYZ structure generated by mol3D Class, molSimplify
C 	0.960278	0.732617	-0.069652
C 	0.898823	-0.588769	0.052777
O 	-0.362712	-1.089461	-0.000884
C 	-1.100873	0.055526	-0.042072
N 	-0.418296	1.074860	0.056540
H 	1.784647	1.404224	0.008857
H 	1.667556	-1.402597	-0.064055
H 	-2.160524	0.046721	-0.014465
