14
03/25/2019 10:01, XYZ structure generated by mol3D Class, molSimplify
C 	-1.703996	-0.870652	0.249436
C 	-0.689896	0.209962	-0.019273
C 	-1.037964	1.473328	-0.264495
C 	0.751197	-0.209773	-0.031434
N 	1.666112	0.807232	0.194256
N 	1.183149	-1.391158	-0.261639
H 	-1.461260	-1.427938	1.160477
H 	-1.738572	-1.592271	-0.575214
H 	-2.706084	-0.446687	0.353552
H 	-0.299612	2.231146	-0.510341
H 	-2.082275	1.779704	-0.262213
H 	1.403906	1.486141	0.893533
H 	2.608654	0.454267	0.301941
H 	0.415034	-2.015593	-0.499499
