11
02/13/2019 22:15, XYZ structure generated by mol3D Class, molSimplify
O 	2.124776	-0.037925	-0.109451
C 	1.013121	0.000467	0.313671
C 	-0.197480	0.067322	-0.495407
C 	-1.390070	0.727071	0.084181
C 	-1.311184	-0.735883	0.126133
H 	0.887945	-0.077238	1.403735
H 	-0.087388	0.075936	-1.594253
H 	-2.130217	1.171799	-0.596212
H 	-1.285000	1.300524	0.986942
H 	-1.121850	-1.293801	1.068130
H 	-1.914972	-1.277484	-0.605933
