16
02/13/2019 22:15, XYZ structure generated by mol3D Class, molSimplify
C 	2.350523	-0.317617	-0.184041
C 	0.944614	-0.207120	0.402130
C 	0.011851	0.837581	-0.201186
C 	-1.430717	0.551920	0.269607
N 	-1.863636	-0.818196	-0.205136
H 	2.965412	-0.926357	0.501578
H 	2.793925	0.721524	-0.355331
H 	2.402906	-0.834721	-1.231590
H 	1.048643	0.084567	1.483018
H 	0.391717	-1.212672	0.403559
H 	0.047158	0.730256	-1.312504
H 	0.290518	1.837533	0.077376
H 	-2.042729	1.397597	-0.104300
H 	-1.455628	0.549744	1.384629
H 	-2.794241	-1.024570	0.091107
H 	-1.944112	-0.970116	-1.198207
