13
02/13/2019 22:15, XYZ structure generated by mol3D Class, molSimplify
C 	1.963273	0.455651	-0.000039
C 	1.066402	-0.583888	0.024575
C 	-0.303904	-0.386503	-0.423596
C 	-1.607486	-0.491751	0.435656
C 	-1.012485	0.863292	-0.060326
H 	1.618261	1.420300	-0.244533
H 	3.066481	0.294601	-0.004679
H 	1.393009	-1.601455	0.255667
H 	-0.460059	-0.645276	-1.446446
H 	-1.598465	-0.588114	1.566384
H 	-2.564025	-0.795413	-0.154155
H 	-1.790695	1.460288	-0.722492
H 	-0.401643	1.551229	0.557157
