15
02/13/2019 22:15, XYZ structure generated by mol3D Class, molSimplify
C 	-2.417850	-0.427215	-0.137758
C 	-1.277667	0.518579	0.179162
C 	0.082447	-0.101304	0.083379
C 	1.270070	0.508440	-0.171749
C 	2.497294	-0.355411	0.007895
H 	-3.350080	0.105824	-0.084348
H 	-2.408978	-0.917645	-1.201431
H 	-2.451898	-1.222264	0.642319
H 	-1.288976	1.425076	-0.530880
H 	-1.430305	0.999493	1.228947
H 	0.172046	-1.184977	0.301749
H 	1.249941	1.646896	-0.232640
H 	3.445806	0.252337	-0.497510
H 	2.670295	-0.406418	1.280424
H 	2.435059	-1.673479	-0.441415
