16
03/25/2019 10:01, XYZ structure generated by mol3D Class, molSimplify
C 	2.538902	-0.641071	-0.085797
C 	1.670700	0.608984	0.035481
C 	0.326532	0.742072	0.058184
C 	-0.704026	-0.315869	0.074198
C 	-2.038234	-0.052536	0.717710
C 	-1.970554	-0.165980	-0.775594
H 	1.954631	-1.583825	-0.192289
H 	3.146556	-0.747603	0.801383
H 	3.226196	-0.512731	-0.936553
H 	2.236538	1.530390	0.052407
H 	0.016017	1.804766	0.060503
H 	-0.276006	-1.301496	0.165725
H 	-2.219858	0.981858	1.082586
H 	-2.474060	-0.816976	1.339417
H 	-2.032929	0.745050	-1.354453
H 	-2.382550	-1.006065	-1.306709
