13
02/13/2019 22:15, XYZ structure generated by mol3D Class, molSimplify
N 	-2.194646	0.225513	0.223976
C 	-0.866678	-0.372874	-0.368779
C 	0.325238	0.088092	0.465384
C 	1.538789	0.800274	-0.298189
N 	1.525706	-0.693733	-0.070943
H 	-2.818852	0.304924	-0.845799
H 	-2.801902	-0.746299	1.038653
H 	-1.014359	-1.534742	-0.375053
H 	-0.648761	0.017364	-1.414575
H 	0.141034	0.405882	1.506190
H 	1.525248	1.236154	-1.355152
H 	2.386258	1.291707	0.283365
H 	2.104358	-0.830814	0.794504
