8
02/11/2019 18:37, XYZ structure generated by mol3D Class, molSimplify
N 	1.122096	-0.604609	0.021718
C 	0.009202	0.148667	-0.013151
N 	-1.116421	-0.594159	0.047154
O 	-0.014399	1.364100	0.002266
H 	1.128353	-1.547808	-0.152812
H 	2.053111	-0.202025	-0.162981
H 	-1.987223	-0.105969	-0.361287
H 	-1.154150	-1.594474	-0.159250
