12
03/25/2019 10:01, XYZ structure generated by mol3D Class, molSimplify
C 	1.491841	1.152760	0.052952
N 	0.602873	0.019630	-0.373983
O 	1.218102	-1.222998	0.211380
C 	-0.715863	-0.088692	-0.085192
N 	-1.524693	1.096337	-0.031045
O 	-1.230839	-1.197569	0.027447
H 	2.382629	1.172847	-0.776072
H 	0.778699	2.041734	-0.108593
H 	1.823228	1.088435	1.126038
H 	0.495286	-1.867568	-0.207933
H 	-1.238081	1.892616	0.791623
H 	-2.413471	0.664362	0.359586
