14
03/25/2019 10:02, XYZ structure generated by mol3D Class, molSimplify
O 	2.113953	-0.018779	-0.157856
C 	0.951307	-0.002856	0.001663
C 	0.056853	1.175071	0.062793
C 	-1.413649	0.739267	0.089950
C 	-1.356349	-0.738441	-0.263332
C 	0.046235	-1.162731	0.249567
H 	0.131190	2.050668	-0.798409
H 	0.316181	1.824480	0.921174
H 	-1.820094	0.604444	1.168009
H 	-2.074991	1.425138	-0.519769
H 	-1.483105	-1.021400	-1.349557
H 	-2.163672	-1.340890	0.184108
H 	0.425666	-2.128235	-0.197333
H 	-0.146912	-1.238942	1.422487
