18
03/25/2019 10:01, XYZ structure generated by mol3D Class, molSimplify
C 	2.403003	0.076659	0.595177
C 	1.560074	0.059395	-0.716426
C 	0.254373	-0.582253	-0.417429
C 	-0.949864	-0.089324	-0.064103
C 	-1.148076	1.329619	0.335908
C 	-2.209119	-0.923570	0.082145
H 	2.448045	-1.025647	1.208724
H 	3.531914	0.261024	0.198347
H 	2.064049	0.826136	1.453875
H 	2.139881	-0.541213	-1.528598
H 	1.297932	1.177157	-1.127481
H 	0.232038	-1.682247	-0.498805
H 	-1.780821	1.819928	-0.409147
H 	-0.088753	1.796968	0.476446
H 	-1.667152	1.466231	1.254369
H 	-3.003062	-0.388984	-0.545562
H 	-2.492563	-0.805353	1.127848
H 	-2.125375	-1.954733	-0.311681
