17
03/25/2019 10:01, XYZ structure generated by mol3D Class, molSimplify
C 	-2.562361	-0.124541	-0.408085
C 	-1.239364	-0.466022	0.357920
N 	-0.063910	-0.017794	-0.295220
C 	0.473833	1.203919	0.272770
C 	1.205142	-0.117032	0.435920
C 	2.369236	-0.463153	-0.365594
H 	-2.500921	-0.671375	-1.398553
H 	-2.578677	0.962738	-0.693857
H 	-3.516780	-0.274319	0.137908
H 	-1.196835	-1.593383	0.344550
H 	-1.170883	-0.027328	1.400694
H 	0.055740	1.725502	1.173957
H 	0.847213	1.911722	-0.486221
H 	1.061722	-0.638434	1.484063
H 	2.958787	-1.561021	0.291270
H 	1.694273	-0.816580	-1.660669
H 	3.240395	0.916679	-0.588781
