11
02/11/2019 18:17, XYZ structure generated by mol3D Class, molSimplify
C 	-0.048632	1.272324	-0.255533
C 	0.043616	-0.022280	0.609815
C 	-0.002986	-1.242237	-0.281976
H 	-0.935182	1.188292	-0.854626
H 	0.070638	2.268579	0.147768
H 	0.836333	1.105632	-0.950577
H 	0.947571	0.083009	1.235084
H 	-0.759413	-0.067311	1.440973
H 	-0.469353	-2.134260	0.288245
H 	1.078722	-1.401075	-0.573453
H 	-0.674031	-1.135816	-1.189336
