13
02/13/2019 22:15, XYZ structure generated by mol3D Class, molSimplify
C 	-2.368122	-0.133160	0.080889
C 	-0.863889	-0.364310	-0.107332
C 	-0.052347	0.655056	-0.069676
C 	1.513047	0.629539	0.004603
O 	1.813758	-0.743664	0.124085
H 	-2.710333	-0.495496	0.997448
H 	-2.559608	1.017151	0.138981
H 	-2.942386	-0.366481	-0.881232
H 	-0.493462	-1.376295	-0.098272
H 	-0.494986	1.715907	0.139126
H 	1.806902	1.117116	0.981859
H 	1.869683	1.057938	-0.857937
H 	1.687732	-1.286318	-0.669712
