10
02/13/2019 22:15, XYZ structure generated by mol3D Class, molSimplify
N 	-0.152827	0.078211	2.447638
C 	0.227697	-0.331930	1.217986
N 	0.079891	0.319703	0.013823
C 	-0.159853	-0.372106	-1.241915
N 	-0.016653	0.103972	-2.431229
H 	-0.491835	1.096922	2.449468
H 	0.750098	-1.383364	1.143316
H 	0.178077	1.322799	-0.055438
H 	-0.664092	-1.450654	-1.004782
H 	0.664723	1.157508	-2.667692
