9
02/13/2019 22:15, XYZ structure generated by mol3D Class, molSimplify
C 	0.726996	-0.990649	0.021913
C 	-0.710600	-0.933791	-0.049697
C 	-1.097027	0.352659	0.072763
O 	-0.002771	1.157324	0.008538
C 	1.103902	0.366479	-0.043210
H 	1.233926	-2.023876	0.177207
H 	-1.327039	-1.872221	-0.003780
H 	-2.137812	0.800061	-0.322192
H 	1.997813	0.974113	-0.007793
