14
03/25/2019 10:01, XYZ structure generated by mol3D Class, molSimplify
C 	-2.873546	-0.293941	-0.181087
O 	-1.513520	-0.504709	0.302084
C 	-0.739777	0.695432	-0.056752
C 	0.679164	0.404896	0.107311
C 	1.837015	0.015471	-0.010919
C 	3.248485	-0.297231	-0.096043
H 	-3.316241	-1.272046	-0.184245
H 	-2.985906	0.140602	-1.271897
H 	-3.399899	0.431517	0.533019
H 	-1.075306	1.689139	0.501566
H 	-0.879306	0.983131	-1.190692
H 	3.960403	1.086942	-0.414579
H 	3.535926	-0.875141	1.314887
H 	3.357653	-1.392928	-1.254612
