11
02/13/2019 22:15, XYZ structure generated by mol3D Class, molSimplify
C 	1.915151	0.113069	0.182714
C 	0.710613	-0.790233	-0.179706
C 	-0.556733	0.105485	-0.111300
O 	-1.673836	-0.656026	0.202507
O 	-0.573820	1.304833	-0.162069
H 	2.853091	-0.417317	-0.232252
H 	1.975306	0.214340	1.512136
H 	1.758148	1.327341	-0.237208
H 	0.774369	-1.055302	-1.289881
H 	0.488210	-1.725923	0.445871
H 	-2.411099	0.036040	0.448972
