10
02/13/2019 22:15, XYZ structure generated by mol3D Class, molSimplify
N 	-1.913569	-0.071165	0.019933
C 	-0.678527	-0.732307	-0.028901
C 	0.555304	0.207316	0.031631
O 	1.735985	-0.540157	0.014943
O 	0.480602	1.388985	-0.050133
H 	-2.074390	0.344644	1.023211
H 	-1.766369	0.736968	-0.670330
H 	-0.591865	-1.506719	0.766736
H 	-0.595466	-1.242482	-1.080599
H 	1.431858	-1.515264	0.209978
