10
02/13/2019 22:15, XYZ structure generated by mol3D Class, molSimplify
O 	-2.153332	-0.118586	-0.107283
C 	-1.051223	0.094180	0.323156
C 	0.229725	0.013680	-0.462150
C 	1.396303	-0.666913	0.192981
N 	1.428949	0.729032	-0.120490
H 	-0.894700	0.356489	1.418670
H 	0.026739	-0.192299	-1.525761
H 	1.285625	-0.994982	1.204364
H 	2.056329	-1.305845	-0.412201
H 	1.302294	1.337804	0.674215
