12
02/13/2019 22:15, XYZ structure generated by mol3D Class, molSimplify
O 	1.654298	-0.069638	-0.373033
C 	0.569346	0.064382	0.605153
C 	-0.443892	-1.022397	0.192682
N 	-1.183208	0.022057	-0.617238
C 	-0.532671	1.027195	0.202454
H 	1.204421	-0.007338	-1.204265
H 	0.986475	0.042701	1.578205
H 	-0.054375	-1.835575	-0.373746
H 	-1.096827	-1.386749	1.106290
H 	-2.225477	0.024575	-0.588798
H 	-0.262475	1.972454	-0.251330
H 	-1.179419	1.164951	1.125826
