11
02/13/2019 22:15, XYZ structure generated by mol3D Class, molSimplify
N 	1.911307	-0.182062	0.001292
N 	0.616488	-0.676788	-0.001482
C 	-0.506608	0.133627	-0.000060
N 	-1.685359	-0.569204	0.003087
N 	-0.526056	1.415365	-0.000787
H 	2.063588	0.397713	-0.820614
H 	2.065018	0.389834	0.829463
H 	0.544460	-1.680250	-0.016118
H 	-1.731914	-1.571785	-0.001220
H 	-2.537227	-0.034634	-0.014491
H 	0.421716	1.784588	-0.005644
