10
02/13/2019 22:15, XYZ structure generated by mol3D Class, molSimplify
O 	-1.817769	-0.647509	-0.033344
N 	-1.294914	0.642544	-0.035195
C 	-0.046940	0.688069	0.095735
C 	1.044981	-0.413485	0.153286
C 	2.292561	-0.117499	-0.141103
H 	-2.787623	-0.399489	-0.367886
H 	0.306998	1.703849	-0.073861
H 	0.747482	-1.494318	0.400394
H 	3.074378	-0.957662	-0.122645
H 	2.536668	0.948291	-0.102765
