9
03/25/2019 10:02, XYZ structure generated by mol3D Class, molSimplify
C 	-2.209536	-0.418890	-0.012854
C 	-0.907988	-0.731639	0.033574
C 	0.076066	0.344642	0.025528
O 	-0.218968	1.525734	-0.007843
C 	1.430465	-0.158551	0.009781
N 	2.511355	-0.588270	-0.021277
H 	-2.984469	-1.136379	-0.118565
H 	-2.490510	0.620600	-0.076175
H 	-0.611767	-1.777961	-0.052287
