17
03/25/2019 10:01, XYZ structure generated by mol3D Class, molSimplify
C 	-2.694707	0.583499	0.377860
C 	-1.830167	-0.424269	-0.385430
C 	-0.372546	-0.061584	-0.355536
C 	0.588030	-0.820255	0.165803
C 	2.048967	-0.458370	0.207964
N 	2.286426	0.927923	-0.177414
H 	-2.580465	1.592852	-0.034537
H 	-3.755515	0.318785	0.323329
H 	-2.406010	0.622074	1.433615
H 	-1.971952	-1.428587	0.035769
H 	-2.171678	-0.469245	-1.429230
H 	-0.092761	0.897296	-0.793577
H 	0.332643	-1.789199	0.598914
H 	2.596658	-1.099589	-0.495842
H 	2.438966	-0.714567	1.210509
H 	1.884743	1.546800	0.521822
H 	3.283210	1.115507	-0.193594
