12
02/13/2019 22:15, XYZ structure generated by mol3D Class, molSimplify
C 	1.698987	-0.605746	-0.117395
C 	0.340605	-0.005916	-0.025762
C 	0.264111	1.468373	0.041245
N 	-0.558017	-0.867607	0.142781
O 	-1.857664	-0.364522	0.010612
H 	2.200101	-0.493541	-1.150428
H 	2.431467	-0.183244	0.622943
H 	1.578197	-1.741909	0.001447
H 	-1.655535	1.635116	0.118193
H 	0.856380	1.919495	-1.501977
H 	1.218201	2.004405	1.482428
H 	-1.800238	0.619501	-0.511428
