12
02/13/2019 22:15, XYZ structure generated by mol3D Class, molSimplify
C 	-1.805565	-0.535634	0.000662
C 	-0.469755	0.166736	-0.001677
N 	-0.428677	1.444696	0.000123
N 	0.614303	-0.681084	-0.001149
N 	1.936440	-0.252719	0.000988
H 	-1.710688	-1.626096	-0.009992
H 	-2.372027	-0.238445	0.887623
H 	-2.379535	-0.224860	-0.874974
H 	0.537492	1.775329	0.000621
H 	0.493850	-1.680934	0.011365
H 	2.117352	0.311533	-0.826150
H 	2.109031	0.322347	0.824095
