12
02/13/2019 22:15, XYZ structure generated by mol3D Class, molSimplify
C 	1.609074	0.644294	-0.359664
C 	0.862482	-0.317368	0.551031
O 	-0.168457	-1.078423	-0.145348
N 	-1.276366	-0.264627	-0.428663
C 	-1.468409	0.778488	0.261395
H 	1.907969	-0.080007	-1.180937
H 	0.909096	1.325095	-0.751626
H 	2.533272	1.048623	0.098093
H 	0.461897	0.090662	1.467504
H 	1.629560	-1.033094	0.711224
H 	-2.443035	1.093445	-0.109834
H 	-0.870009	1.132185	1.262393
