11
02/13/2019 22:15, XYZ structure generated by mol3D Class, molSimplify
C 	-1.161887	0.388821	0.051923
O 	-0.001813	1.164071	-0.050104
C 	1.195632	0.401386	0.003618
C 	0.641088	-1.052698	0.030476
C 	-0.671001	-1.062115	-0.041421
H 	-1.741327	0.610094	0.991728
H 	-1.840570	0.628656	-0.762475
H 	1.830018	0.695533	-0.814500
H 	1.683402	0.584563	0.963090
H 	1.373268	-1.903686	0.021016
H 	-1.321640	-1.923016	-0.134675
