12
02/11/2019 18:37, XYZ structure generated by mol3D Class, molSimplify
C 	-0.802909	0.785639	0.047177
C 	-0.779748	-0.769738	-0.052126
C 	0.775417	-0.779819	0.040580
C 	0.796717	0.774546	-0.031369
H 	-1.188566	1.144650	1.020215
H 	-1.293938	1.322810	-0.761997
H 	-1.080197	-1.205099	-0.986999
H 	-1.252762	-1.320323	0.728845
H 	1.256938	-1.322123	-0.744438
H 	1.216434	-1.117980	0.999972
H 	1.325985	1.341290	0.759523
H 	1.141402	1.030227	-1.065863
