20
03/25/2019 10:01, XYZ structure generated by mol3D Class, molSimplify
C 	-2.838141	-0.215534	0.127371
C 	-1.485575	0.359623	-0.289141
C 	-0.295971	-0.486589	0.185214
C 	1.070220	-0.012713	-0.336057
C 	2.154869	-1.029777	0.018480
C 	1.428669	1.378012	0.201282
H 	-3.665540	0.407863	-0.215668
H 	-2.971985	-1.221653	-0.293008
H 	-2.904172	-0.305111	1.223226
H 	-1.396414	1.379586	0.115767
H 	-1.455637	0.447752	-1.385823
H 	-0.256192	-0.494758	1.290190
H 	-0.468700	-1.536053	-0.116581
H 	1.010041	0.054358	-1.437674
H 	3.141895	-0.715364	-0.335336
H 	1.947923	-2.019198	-0.419090
H 	2.220952	-1.151945	1.105236
H 	0.694761	2.141573	-0.076680
H 	1.508770	1.360713	1.301714
H 	2.404674	1.692557	-0.208357
