10
02/13/2019 22:15, XYZ structure generated by mol3D Class, molSimplify
O 	2.166112	0.051097	0.000785
C 	0.844710	-0.447467	-0.001023
C 	-0.076259	0.734857	-0.000351
N 	-1.346492	0.677848	-0.000291
O 	-1.771365	-0.650533	0.000746
H 	2.768393	-0.701187	0.001016
H 	0.628824	-1.070052	0.881017
H 	0.631833	-1.066249	-0.886840
H 	0.360203	1.730208	-0.000999
H 	-2.732667	-0.566396	0.001623
