13
02/13/2019 22:15, XYZ structure generated by mol3D Class, molSimplify
C 	1.873198	0.246749	-0.140530
O 	0.815929	-0.593550	-0.153068
C 	-0.367829	-0.258304	0.585754
C 	-1.065025	0.913779	-0.064233
C 	-1.566899	-0.473145	-0.223087
H 	1.828641	1.222741	-0.838499
H 	2.037103	0.692261	0.965348
H 	2.823126	-0.366316	-0.384207
H 	-0.364931	-0.369063	1.657702
H 	-1.597258	1.706626	0.528074
H 	-0.585974	1.258237	-1.069259
H 	-2.416574	-0.980611	0.285817
H 	-1.341561	-1.050209	-1.149816
