11
02/11/2019 18:37, XYZ structure generated by mol3D Class, molSimplify
N 	1.586358	-0.394822	-0.293594
C 	0.614317	0.544861	0.345048
C 	-0.703438	-0.173620	0.444203
C 	-1.778024	-0.079424	-0.355698
H 	1.305194	-0.140733	-1.377713
H 	2.601794	0.026297	-0.242404
H 	1.023031	0.698771	1.347178
H 	0.485913	1.614251	0.001067
H 	-0.756184	-1.056103	1.217556
H 	-1.839097	0.590678	-1.310439
H 	-2.629880	-0.664417	-0.139076
