9
02/11/2019 18:17, XYZ structure generated by mol3D Class, molSimplify
C 	-1.110256	-0.186027	0.033720
O 	0.025998	0.584350	-0.055522
C 	1.088147	-0.164555	0.017506
H 	-1.303995	-0.894423	-0.761328
H 	-2.101245	0.401851	0.027037
H 	-0.993168	-0.903446	0.862046
H 	0.973367	-1.082026	0.788836
H 	2.062624	0.424566	0.361219
H 	1.213063	-0.693238	-1.006584
