9
02/13/2019 22:15, XYZ structure generated by mol3D Class, molSimplify
N 	1.605621	-0.653548	0.024871
C 	0.446889	0.114216	-0.029144
N 	0.473597	1.405047	-0.040150
C 	-0.832177	-0.670442	-0.106350
O 	-1.870335	-0.018732	0.089392
H 	2.467593	-0.099005	0.541282
H 	1.538593	-1.659182	0.031751
H 	-0.498002	1.816388	0.066855
H 	-0.870506	-1.768206	-0.233019
