11
02/13/2019 22:15, XYZ structure generated by mol3D Class, molSimplify
C 	2.047386	0.292872	-0.466878
C 	0.817096	-0.183047	0.548597
O 	-0.182096	-0.768883	-0.308287
C 	-1.303996	-0.141982	-0.319920
O 	-1.752180	0.717217	0.553886
H 	2.562734	1.123138	0.308162
H 	3.022472	-0.732812	-0.813750
H 	1.493429	0.995220	-1.601375
H 	1.212680	-1.012645	1.502929
H 	0.113740	0.833384	1.073148
H 	-1.786316	-0.530068	-1.334336
