9
02/13/2019 22:15, XYZ structure generated by mol3D Class, molSimplify
O 	1.864597	-0.640228	-0.168804
N 	1.247468	0.595579	0.162328
C 	-0.142322	0.615472	-0.001167
N 	-0.830672	-0.461932	0.056349
O 	-2.193871	-0.244608	-0.024819
H 	1.698513	-1.213987	0.615551
H 	1.689577	1.274569	-0.443252
H 	-0.524063	1.654224	-0.041949
H 	-2.386467	0.693087	-0.191472
