12
03/25/2019 10:02, XYZ structure generated by mol3D Class, molSimplify
O 	2.122960	-0.100700	-0.070628
C 	0.775464	-0.027233	-0.409729
C 	-0.202993	-0.756890	0.506051
O 	-1.193581	-1.422705	-0.254272
C 	-0.173196	0.712876	0.458243
O 	-1.284529	1.331180	-0.105064
H 	2.629399	0.693097	-0.235831
H 	0.446746	-0.119648	-1.443905
H 	0.099391	-1.210600	1.449331
H 	-2.025849	-0.890844	-0.285505
H 	0.201200	1.235709	1.344335
H 	-1.122262	2.272309	-0.444638
