17
03/25/2019 10:01, XYZ structure generated by mol3D Class, molSimplify
C 	-2.513716	-0.021870	-0.299122
C 	-1.257419	-0.564825	0.357059
N 	-0.070920	-0.098051	-0.348578
C 	0.421417	1.190523	0.105405
C 	1.157627	-0.064656	0.423744
C 	2.435974	-0.419166	-0.283819
H 	-2.541201	-0.330740	-1.348562
H 	-2.560794	1.071671	-0.250898
H 	-3.414699	-0.397795	0.211154
H 	-1.267867	-1.656025	0.316833
H 	-1.198554	-0.289458	1.418139
H 	-0.112241	1.685243	0.922611
H 	0.778810	1.876304	-0.659669
H 	1.070251	-0.402997	1.464546
H 	2.558002	-1.498920	-0.355859
H 	2.390146	-0.031393	-1.316532
H 	3.320558	-0.010499	0.220884
