9
02/13/2019 22:15, XYZ structure generated by mol3D Class, molSimplify
O 	-1.776301	-0.781645	-0.032021
C 	-1.405701	0.366174	-0.094524
C 	0.024701	0.804414	0.115088
C 	1.024690	-0.334166	0.143749
O 	2.181107	-0.189573	-0.170273
H 	-2.126359	1.183944	-0.302558
H 	0.324625	1.543309	-0.637932
H 	0.068657	1.330240	1.082009
H 	0.633381	-1.309025	0.485289
