10
02/13/2019 22:15, XYZ structure generated by mol3D Class, molSimplify
C 	-2.087185	-0.202042	0.132127
N 	-0.839511	-0.410684	-0.222728
N 	-0.013803	0.674424	-0.009826
C 	1.333298	0.488873	-0.061335
N 	1.878877	-0.693168	0.114588
H 	-2.747292	-1.079393	-0.028108
H 	-2.582424	0.697464	0.634547
H 	-0.557908	1.583328	0.113246
H 	2.072782	1.360388	-0.053721
H 	1.088942	-1.334902	0.130192
