12
03/25/2019 10:02, XYZ structure generated by mol3D Class, molSimplify
N 	1.899343	-0.446671	0.068022
N 	0.579298	0.026889	-0.406451
C 	0.204933	1.454015	0.175588
C 	-1.271322	0.853537	-0.027908
C 	-0.692792	-0.569433	-0.134695
O 	-1.098280	-1.681746	0.194378
H 	2.009328	-0.289059	1.226675
H 	2.700951	0.103841	-0.469373
H 	0.492671	1.786852	1.292449
H 	0.462745	2.403143	-0.474036
H 	-1.658038	1.188249	-0.950184
H 	-1.857680	1.022215	0.837189
