11
02/13/2019 22:15, XYZ structure generated by mol3D Class, molSimplify
C 	-1.852532	-0.448339	0.112981
C 	-1.052131	0.619133	0.004270
C 	0.342172	0.551044	-0.289138
C 	1.460524	0.051028	0.609885
O 	1.022577	-0.716055	-0.503131
H 	-1.403006	-1.457299	0.006476
H 	-2.959617	-0.492125	0.067661
H 	-1.475686	1.632892	0.173307
H 	0.457567	1.260836	-1.172334
H 	1.211009	-0.351002	1.587532
H 	2.532726	0.465658	0.517051
