10
02/11/2019 18:37, XYZ structure generated by mol3D Class, molSimplify
C 	-1.455795	-0.158296	0.019070
C 	0.094620	0.106784	-0.037807
N 	0.893547	-1.033950	-0.130759
N 	0.479889	1.367774	0.119454
H 	-1.631748	-0.665771	-1.437049
H 	-1.748065	-1.235718	1.151488
H 	-1.908394	1.457027	0.267212
H 	0.513063	-1.918842	0.084409
H 	1.906073	-1.076309	0.251401
H 	1.488621	1.464616	0.062659
