17
03/25/2019 10:02, XYZ structure generated by mol3D Class, molSimplify
C 	-2.103932	0.012380	-0.421553
C 	-0.814755	0.103335	0.489556
C 	0.181847	1.244159	0.152809
C 	1.562700	0.589313	-0.100574
N 	1.238376	-0.818078	-0.509897
C 	0.051509	-1.115710	0.359166
H 	-1.762600	-0.177933	-1.461746
H 	-2.673111	0.939321	-0.273567
H 	-2.640340	-0.922045	-0.055668
H 	-1.020850	0.283963	1.540047
H 	0.152778	1.839329	1.019038
H 	-0.165401	1.943659	-0.645204
H 	2.129869	0.917589	-1.022086
H 	2.166339	0.719404	0.826304
H 	1.939929	-1.573901	-0.465898
H 	0.428992	-1.310508	1.389486
H 	-0.687559	-1.958208	0.018640
