14
03/25/2019 10:01, XYZ structure generated by mol3D Class, molSimplify
C 	-1.690781	-0.917394	0.027926
O 	-1.090942	0.232438	-0.337122
C 	0.087465	0.469258	0.358330
C 	0.366827	1.898853	-0.080225
C 	1.108106	-0.509181	0.071529
C 	1.864964	-1.453933	-0.086836
H 	-2.676402	-0.921205	-0.429191
H 	-1.900419	-0.924504	1.158849
H 	-1.234907	-1.897521	-0.310181
H 	0.044591	0.420866	1.448181
H 	1.160370	2.292552	0.572161
H 	-0.669365	2.482038	-0.139910
H 	0.713403	1.896747	-1.186485
H 	2.713388	-2.120505	-0.246037
