13
02/13/2019 22:15, XYZ structure generated by mol3D Class, molSimplify
C 	-1.877647	-0.645310	-0.034974
O 	-1.230233	0.672187	-0.158355
C 	0.038268	0.703793	0.205305
O 	0.768725	-0.491129	-0.172298
C 	2.162102	-0.149125	-0.034484
H 	-1.287348	-1.507685	-0.463394
H 	-2.016853	-0.887847	1.024087
H 	-2.856784	-0.469453	-0.450944
H 	0.003612	0.776938	1.346915
H 	0.541031	1.579570	-0.380458
H 	2.725668	-0.977784	-0.598892
H 	2.363856	-0.027408	1.094635
H 	2.290522	0.991444	-0.543703
