12
02/13/2019 22:15, XYZ structure generated by mol3D Class, molSimplify
C 	-1.822070	-0.555457	-0.032339
C 	-0.472296	0.132957	-0.042026
N 	-0.368600	1.425809	0.077105
N 	0.595239	-0.655229	0.168264
N 	1.897580	-0.232844	-0.128858
H 	-1.668207	-1.711125	1.227563
H 	-2.840754	0.790445	0.213388
H 	-1.886598	-1.079219	-1.510995
H 	0.642577	1.765422	0.209301
H 	0.551026	-1.698786	-1.069762
H 	1.932916	0.771333	-0.682415
H 	2.261392	0.066080	0.879506
