12
03/25/2019 10:02, XYZ structure generated by mol3D Class, molSimplify
C 	-2.183076	0.090317	-0.044161
C 	-0.691338	-0.102321	0.042732
C 	0.199541	1.130439	0.109796
C 	1.460802	0.680864	0.087789
O 	1.482243	-0.705131	-0.112195
C 	0.153122	-1.095649	-0.058032
H 	-2.677497	-1.630657	-0.156563
H 	-2.781452	0.815756	1.503625
H 	-2.383713	1.246950	-1.416767
H 	-0.238315	2.162296	0.170276
H 	2.407469	1.145170	-0.049003
H 	0.088322	-2.152442	0.084417
