12
02/13/2019 22:15, XYZ structure generated by mol3D Class, molSimplify
C 	-1.908458	-0.014642	-0.113924
N 	-0.625410	-0.680492	0.107007
C 	0.493585	0.099572	0.053241
N 	1.685278	-0.632361	-0.140924
N 	0.395202	1.398332	0.110868
H 	-1.800722	1.282421	0.368036
H 	-2.716788	-0.746061	0.424077
H 	-2.124268	0.087576	-1.360649
H 	-0.469671	-1.664454	0.282350
H 	2.589630	-0.187455	0.268185
H 	1.635195	-1.620166	-0.174315
H 	1.276446	1.854940	-0.154373
