11
02/13/2019 22:15, XYZ structure generated by mol3D Class, molSimplify
C 	1.151332	-1.183916	-0.032278
C 	0.427656	0.134911	0.065133
C 	1.028339	1.299733	0.009203
C 	-0.963872	-0.060434	-0.002973
C 	-2.199658	-0.027328	0.027342
H 	2.247765	-0.890100	0.031271
H 	0.846380	-1.684904	-0.978372
H 	0.902225	-1.732633	0.868416
H 	0.364885	2.247698	-0.409477
H 	2.118235	1.421319	-0.005687
H 	-3.212346	-0.179367	-0.297115
