14
03/25/2019 10:01, XYZ structure generated by mol3D Class, molSimplify
C 	2.977227	0.080551	-0.126756
C 	1.523375	0.041044	0.051563
C 	0.339778	-0.007820	0.205548
C 	-1.136318	-0.053718	0.405625
C 	-1.748746	1.161672	-0.289452
O 	-1.685214	-1.241670	-0.174035
H 	3.360740	-1.837996	0.077273
H 	3.548505	1.254053	1.390753
H 	3.100407	0.888682	-1.990647
H 	-1.361508	-0.005106	1.474120
H 	-2.809865	1.158231	-0.196048
H 	-1.444986	1.118612	-1.353019
H 	-1.400653	2.084926	0.153070
H 	-1.189799	-1.956483	0.287962
