8
02/13/2019 22:15, XYZ structure generated by mol3D Class, molSimplify
C 	-2.200888	-0.511966	-0.009786
C 	-1.138610	0.066822	-0.016860
C 	0.073755	0.874485	-0.026155
C 	1.240992	0.046048	0.065033
N 	2.147341	-0.684018	-0.027173
H 	-3.103788	-1.137056	0.219476
H 	0.085454	1.414772	0.873354
H 	0.162108	1.635399	-0.860962
