13
02/13/2019 22:15, XYZ structure generated by mol3D Class, molSimplify
O 	-2.341063	-0.156334	-0.063363
C 	-1.033467	-0.245954	0.394805
C 	-0.018076	0.697105	-0.287914
C 	1.355545	0.445407	0.276037
O 	1.915410	-0.713027	-0.319003
H 	-2.404846	-0.424345	-0.972089
H 	-0.776299	-1.354178	0.337308
H 	-1.074882	0.066121	1.516343
H 	-0.299737	1.744184	-0.071727
H 	-0.052740	0.644248	-1.347582
H 	1.205167	0.284374	1.394809
H 	2.014606	1.277442	0.148691
H 	2.826128	-0.581229	0.045984
