13
02/13/2019 22:15, XYZ structure generated by mol3D Class, molSimplify
C 	1.717395	0.634456	-0.311491
C 	0.912983	-0.349726	0.519350
O 	-0.073785	-0.987402	-0.220055
C 	-1.274548	-0.373805	-0.137997
C 	-1.609857	0.843743	0.158771
H 	2.474673	1.162863	0.284817
H 	0.966535	1.318777	-0.848130
H 	2.198559	0.190344	-1.223066
H 	0.419626	0.166403	1.422990
H 	1.582031	-1.148613	0.828869
H 	-2.097078	-1.051972	-0.370182
H 	-0.809869	1.742300	0.135881
H 	-2.761090	0.953392	0.124083
