11
02/13/2019 22:15, XYZ structure generated by mol3D Class, molSimplify
C 	-1.467718	-0.662553	0.243832
O 	-1.034199	0.444322	-0.513040
C 	0.084158	1.027889	0.083808
C 	1.278364	0.163225	0.168355
O 	1.448526	-1.007230	-0.162926
H 	-2.256597	-1.134873	-0.363811
H 	-1.965210	-0.210980	1.134935
H 	-0.654981	-1.347340	0.413044
H 	0.283261	1.930397	-0.549606
H 	-0.055974	1.414172	1.086328
H 	2.159660	0.709096	0.529221
