8
02/13/2019 22:15, XYZ structure generated by mol3D Class, molSimplify
O 	-2.185284	0.088638	-0.014593
N 	-0.917432	-0.468938	0.004926
C 	-0.012250	0.419266	0.011371
C 	1.367445	0.054323	-0.012914
C 	2.541302	-0.116809	0.007434
H 	-2.807176	-0.662508	0.096851
H 	-0.254334	1.491282	0.044498
H 	3.586974	-0.377863	-0.048337
