12
03/25/2019 10:01, XYZ structure generated by mol3D Class, molSimplify
C 	-0.854321	-1.049768	0.119785
N 	-1.452769	0.272824	0.127390
C 	-0.518249	1.153591	0.009308
N 	0.672816	0.682703	-0.580706
C 	1.448600	-0.064402	0.565493
C 	0.571192	-0.765779	-0.350144
H 	-0.819629	-1.624543	1.109809
H 	-1.399012	-1.535406	-0.715303
H 	-0.857105	2.188059	-0.093894
H 	1.178120	0.243513	1.604262
H 	2.559686	-0.211904	0.367423
H 	0.967625	-1.436566	-1.145530
