13
02/13/2019 22:15, XYZ structure generated by mol3D Class, molSimplify
C 	-0.016052	1.203056	0.299769
C 	1.250644	0.293868	-0.267141
C 	0.671576	-1.011604	0.114147
C 	-0.696914	-1.073500	0.182991
C 	-1.208431	0.288375	-0.284838
H 	-0.008692	1.217260	1.688959
H 	0.047478	2.628421	-0.010862
H 	2.413848	0.708926	0.203811
H 	1.263803	0.287828	-1.523394
H 	1.157229	-2.008031	0.323677
H 	-1.277854	-1.933222	0.170998
H 	-2.325162	0.650198	0.217604
H 	-1.280446	0.284488	-1.605735
