16
03/25/2019 10:01, XYZ structure generated by mol3D Class, molSimplify
C 	2.284696	-0.019492	0.249191
N 	1.015736	0.043968	-0.350926
C 	-0.060346	1.010911	-0.048655
C 	-1.056238	0.020548	-0.437098
N 	-2.209697	-0.017311	0.421918
C 	0.057754	-1.028610	-0.024427
H 	2.602856	-1.015857	-0.075898
H 	3.024901	0.665859	-0.258718
H 	2.261145	0.111294	1.348654
H 	-0.088474	1.219660	1.029238
H 	-0.143883	2.052014	-0.573034
H 	-1.155833	-0.349771	-1.562991
H 	-3.051040	-0.621491	-0.091082
H 	-2.475019	1.090007	0.640511
H 	0.096760	-2.002194	-0.544757
H 	0.008295	-1.321736	0.995886
