10
02/13/2019 22:15, XYZ structure generated by mol3D Class, molSimplify
C 	1.760695	-0.476822	-0.047004
N 	0.383115	-0.042011	0.029550
O 	0.267513	1.344603	0.052774
C 	-0.835821	-0.733752	0.015487
O 	-1.907715	-0.134165	-0.036360
H 	2.369762	0.269669	0.698760
H 	2.208103	-0.266631	-1.126431
H 	1.815522	-1.636258	0.317208
H 	-0.762648	1.411905	-0.297099
H 	-0.653244	-1.815239	-0.116976
