14
03/25/2019 10:01, XYZ structure generated by mol3D Class, molSimplify
C 	-3.065731	-0.202992	-0.410072
C 	-1.670010	0.455935	-0.003285
C 	-0.342768	-0.274052	0.196110
N 	0.765540	0.295835	0.574978
N 	1.957040	-0.515191	0.657846
C 	3.016902	0.200125	-0.858958
H 	-3.073681	-1.216719	0.112531
H 	-3.363670	-0.488781	-1.586829
H 	-3.777537	0.707016	-0.025912
H 	-1.504179	1.265731	-0.733653
H 	-1.822365	1.059696	0.937557
H 	-0.289430	-1.416145	-0.054652
H 	3.007022	1.275987	-1.808629
H 	3.884057	-0.360130	-1.155505
