9
02/13/2019 22:15, XYZ structure generated by mol3D Class, molSimplify
O 	-2.148160	-0.648087	0.385851
C 	-1.420708	0.330836	-0.404710
C 	0.048939	0.558594	0.199838
C 	1.133257	-0.526870	-0.375273
O 	2.455361	0.085361	0.117263
H 	-1.786858	1.199523	-1.837943
H 	0.274346	1.943218	-0.040855
H 	-0.080436	0.583296	1.404142
H 	0.639710	-1.818428	-1.229727
