12
02/13/2019 22:15, XYZ structure generated by mol3D Class, molSimplify
N 	1.687813	-0.811078	0.279495
C 	1.181877	0.330762	-0.456093
C 	-0.073914	0.841857	0.316377
C 	-1.384277	0.155101	0.034434
C 	-2.356590	-0.492829	-0.135429
H 	1.750516	-1.820924	-0.681479
H 	2.955010	-0.480072	0.886571
H 	0.954991	-0.244854	-1.370321
H 	1.833886	1.210982	-0.735641
H 	0.047665	0.746744	1.411201
H 	-0.190483	1.954500	0.114153
H 	-3.212831	-1.123215	-0.529776
