14
02/13/2019 22:15, XYZ structure generated by mol3D Class, molSimplify
C 	2.502665	-0.254953	-0.055323
C 	1.137636	0.346155	-0.216114
C 	0.036795	-0.069324	0.406298
C 	-1.331510	0.530713	0.221748
N 	-2.341783	-0.387032	-0.310654
H 	2.487334	-1.095706	0.645092
H 	2.891194	-0.614576	-1.015326
H 	3.218951	0.486735	0.318636
H 	1.060428	1.193981	-0.901025
H 	0.101095	-0.919888	1.090369
H 	-1.709446	0.912053	1.179498
H 	-1.266415	1.394203	-0.451547
H 	-2.474513	-1.160538	0.336434
H 	-1.989223	-0.802240	-1.170023
