12
03/25/2019 10:02, XYZ structure generated by mol3D Class, molSimplify
N 	1.864976	-0.537395	0.249162
N 	0.660659	0.060474	-0.963967
C 	0.063559	1.475493	0.302475
C 	-1.287696	0.911216	0.008052
C 	-0.627477	-0.554457	-0.160535
O 	-1.058539	-1.663374	0.330057
H 	1.780946	-0.313981	1.463415
H 	3.204917	-0.348787	-0.153756
H 	0.471294	1.122811	1.762980
H 	0.276934	2.935057	0.007862
H 	-1.733921	1.278155	-1.031809
H 	-2.033265	0.923516	0.858890
