11
02/13/2019 22:15, XYZ structure generated by mol3D Class, molSimplify
O 	-2.236213	0.130404	-0.152369
C 	-0.963281	-0.522545	0.152560
C 	0.096811	0.587446	0.125364
C 	1.437838	0.129782	0.046049
C 	2.591160	-0.221255	-0.144543
H 	-2.860434	-0.585275	-0.405667
H 	-0.726642	-1.329492	-0.582268
H 	-0.878326	-0.934093	1.251533
H 	-0.167283	1.207341	0.999441
H 	-0.174015	1.170689	-0.733847
H 	3.723505	-0.332068	-0.247513
