13
02/13/2019 22:15, XYZ structure generated by mol3D Class, molSimplify
C 	-1.619994	-0.777017	-0.334245
C 	-0.494971	-0.032116	0.384883
O 	-0.523815	1.384045	-0.007794
C 	0.890709	-0.628375	0.316273
C 	1.933809	-0.009922	-0.301880
H 	-2.134158	-1.572834	0.530016
H 	-2.412746	0.185920	-0.912769
H 	-0.965983	-1.598231	-1.299196
H 	-0.663480	-0.048448	1.447422
H 	0.658964	1.777690	0.020995
H 	0.989257	-1.657364	0.710374
H 	2.915301	-0.489150	-0.248618
H 	1.849744	0.892143	-0.800483
