11
02/13/2019 22:15, XYZ structure generated by mol3D Class, molSimplify
C 	-2.020082	-0.517828	-0.114309
N 	-1.089485	0.594810	-0.110863
N 	0.140053	0.253252	0.444993
C 	1.240590	0.100096	-0.346400
O 	2.302053	-0.336658	0.051380
H 	-2.160770	-0.964147	0.880643
H 	-3.005481	-0.161599	-0.458971
H 	-1.654207	-1.288646	-0.803425
H 	-1.472398	1.378103	0.404244
H 	0.185603	-0.165119	1.374193
H 	1.048044	0.406861	-1.387675
