12
02/11/2019 18:37, XYZ structure generated by mol3D Class, molSimplify
C 	1.240302	-0.678772	0.129427
C 	0.002312	0.051681	-0.393342
C 	-1.256632	-0.636600	0.108873
O 	-0.019188	1.399614	0.000997
H 	1.101888	-1.025073	1.216604
H 	1.455116	-1.610872	-0.479410
H 	2.099524	-0.004086	-0.031995
H 	-0.028634	0.190863	-1.500028
H 	-1.105654	-0.847234	1.169666
H 	-2.197511	-0.246949	-0.124883
H 	-1.176185	-1.644098	-0.247611
H 	0.322884	1.508326	0.976074
