9
02/11/2019 18:37, XYZ structure generated by mol3D Class, molSimplify
C 	1.653195	0.119131	-0.016455
O 	0.407504	-0.487203	0.008709
N 	-0.598133	0.456600	0.017141
C 	-1.743023	-0.051013	0.000298
H 	2.184389	-0.124011	0.945823
H 	1.486985	1.152074	-0.050141
H 	2.184418	-0.219629	-0.893278
H 	-1.867491	-1.111068	-0.142421
H 	-2.569476	0.614021	-0.043991
