9
02/13/2019 22:15, XYZ structure generated by mol3D Class, molSimplify
C 	0.699335	-0.951027	-0.026641
C 	-0.703013	-0.939221	0.032076
C 	-1.099219	0.351452	-0.007854
O 	0.000921	1.126509	0.030262
C 	1.083146	0.343368	-0.014192
H 	1.413575	-1.761994	0.077414
H 	-1.270537	-1.782816	-0.016561
H 	-1.981955	0.903135	-0.282755
H 	2.059488	0.891247	-0.060581
