10
02/13/2019 22:15, XYZ structure generated by mol3D Class, molSimplify
C 	-1.817139	-0.075250	-0.008240
O 	-0.540574	-0.729943	-0.009559
C 	0.488031	0.130000	0.007760
N 	1.666961	-0.546834	-0.007365
O 	0.356586	1.338953	0.014243
H 	-2.557518	-0.885925	0.166965
H 	-1.981779	0.435201	-0.957338
H 	-1.860463	0.670603	0.806510
H 	1.701407	-1.544624	0.033403
H 	2.512597	0.000123	-0.015826
