11
02/13/2019 22:15, XYZ structure generated by mol3D Class, molSimplify
O 	1.307515	-0.842688	-0.065016
C 	0.710524	0.315955	0.450921
C 	-0.027821	1.228522	-0.492657
C 	-0.784053	0.276967	0.397051
O 	-1.373905	-0.852767	-0.160209
H 	1.969748	-0.579092	-0.716337
H 	1.207293	0.736081	1.325405
H 	-0.045355	2.293873	-0.281007
H 	0.000119	0.962715	-1.548879
H 	-1.350531	0.678829	1.234297
H 	-0.637246	-1.458657	-0.348148
