9
02/11/2019 18:37, XYZ structure generated by mol3D Class, molSimplify
C 	-1.346776	-0.351999	-0.013551
C 	0.052078	0.138059	-0.040675
N 	0.999403	-0.812501	0.254406
O 	0.404301	1.328673	-0.130169
H 	-1.415995	-1.492366	-1.256195
H 	-2.383285	1.136344	-0.045578
H 	-1.503747	-1.134740	1.625499
H 	0.881045	-1.842322	-0.925398
H 	1.877622	-0.318652	-0.221630
