11
02/13/2019 22:15, XYZ structure generated by mol3D Class, molSimplify
C 	0.742210	1.351290	-0.000494
C 	0.604918	-0.153418	-0.000299
O 	1.551051	-0.920873	0.001416
N 	-0.675664	-0.646010	-0.002233
N 	-1.800078	0.171760	0.001293
H 	0.260627	1.786392	0.879505
H 	1.805966	1.591300	-0.004030
H 	0.254986	1.787282	-0.876765
H 	-0.756358	-1.655439	-0.001289
H 	-2.363675	-0.002142	-0.824604
H 	-2.363410	-0.006471	0.827216
