9
02/13/2019 22:15, XYZ structure generated by mol3D Class, molSimplify
N 	-1.686812	-0.485592	0.077680
C 	-0.463629	0.129508	-0.011416
O 	-0.289984	1.337812	-0.004304
N 	0.607782	-0.757229	-0.106401
O 	1.843475	-0.108151	-0.001984
H 	-1.789495	-1.384132	-0.372973
H 	-2.468405	0.142805	-0.040651
H 	0.581126	-1.499139	0.586587
H 	1.581707	0.824075	0.148091
