8
02/13/2019 22:15, XYZ structure generated by mol3D Class, molSimplify
O 	-2.188381	0.144458	0.064275
N 	-0.957768	-0.501587	-0.031447
C 	0.000248	0.369900	-0.038406
C 	1.344753	-0.055476	-0.090260
C 	2.597343	-0.015213	0.078790
H 	-2.872633	-0.558626	-0.169933
H 	-0.242547	1.446851	0.058261
H 	3.704348	-0.184118	0.122361
