12
02/13/2019 22:15, XYZ structure generated by mol3D Class, molSimplify
O 	-1.866756	0.511143	-0.100401
C 	-0.916477	-0.550487	-0.194713
C 	0.337550	-0.311591	0.521154
C 	1.026577	0.834676	-0.094005
N 	1.612239	-0.558024	-0.247749
H 	-2.190639	0.582121	0.845706
H 	-0.693315	-0.825121	-1.300803
H 	-1.275622	-1.548536	0.216659
H 	0.348568	-0.275739	1.572631
H 	1.687000	1.526459	0.465186
H 	0.465087	1.117526	-1.008351
H 	2.417351	-0.613506	0.448914
