10
02/13/2019 22:15, XYZ structure generated by mol3D Class, molSimplify
N 	-2.247269	-0.001419	-0.236982
C 	-1.150404	0.001217	0.134558
C 	0.223314	0.000702	0.583439
C 	1.257819	0.746325	-0.227521
C 	1.255934	-0.746849	-0.228353
H 	0.334754	0.001638	1.663762
H 	2.027990	1.267704	0.332072
H 	0.911912	1.262248	-1.117530
H 	0.907293	-1.260139	-1.119566
H 	2.027775	-1.268351	0.329597
