14
02/13/2019 22:15, XYZ structure generated by mol3D Class, molSimplify
C 	-0.680435	1.486500	0.080757
C 	-0.433373	0.017869	-0.281752
N 	-1.694072	-0.789049	-0.059036
C 	0.783177	-0.663336	0.320587
O 	2.001063	-0.008906	-0.040960
H 	-1.001565	1.606041	1.137450
H 	-1.514264	1.927532	-0.582796
H 	0.256174	2.059583	-0.102133
H 	-0.275826	0.027774	-1.354893
H 	-1.716124	-1.095426	0.995059
H 	-1.539875	-1.682279	-0.608612
H 	0.803230	-1.656653	-0.110757
H 	0.804915	-0.660230	1.455726
H 	1.998175	0.096080	-1.044970
