11
02/13/2019 22:15, XYZ structure generated by mol3D Class, molSimplify
C 	0.935965	0.787154	-0.177519
C 	0.939718	-0.711693	0.158573
N 	-0.461733	-1.250463	-0.143028
C 	-1.192011	-0.152711	0.012557
N 	-0.503721	1.022372	0.058846
H 	1.510038	1.401588	0.512713
H 	1.166698	1.078453	-1.287870
H 	1.230141	-0.846662	1.366466
H 	1.915397	-1.243801	-0.420203
H 	-2.217338	-0.151360	-0.221509
H 	-0.811272	1.950687	1.296132
