11
02/13/2019 22:15, XYZ structure generated by mol3D Class, molSimplify
C 	-1.835069	-0.439138	0.193873
C 	-1.122104	0.605218	-0.054505
C 	0.404427	0.580388	-0.246743
C 	1.413371	0.013362	0.618442
O 	1.069223	-0.710596	-0.572597
H 	-1.331895	-1.414355	0.408982
H 	-2.991713	-0.393124	0.066471
H 	-1.632441	1.571034	-0.210727
H 	0.595283	1.413182	-0.951861
H 	0.989482	-0.416128	1.568481
H 	2.439382	0.366944	0.530831
