13
02/13/2019 22:15, XYZ structure generated by mol3D Class, molSimplify
C 	1.641280	0.008370	0.583412
C 	0.502429	0.022539	-0.567824
C 	-0.539225	1.103286	-0.278317
C 	-1.236598	-0.133028	0.732837
O 	-0.491943	-1.138877	-0.547302
H 	1.184113	-0.159260	1.657593
H 	2.128334	1.053168	0.378673
H 	2.320668	-0.785179	0.268305
H 	1.047175	0.015768	-1.628469
H 	-0.268429	2.334685	0.220867
H 	-1.348367	1.230975	-1.321921
H 	-0.546138	-0.205085	2.123876
H 	-2.763620	-0.090633	0.753886
