13
02/13/2019 22:15, XYZ structure generated by mol3D Class, molSimplify
C 	1.893577	0.021401	-0.156848
C 	0.491185	-0.017944	0.438174
C 	-0.538454	1.010573	-0.060422
O 	-1.588072	0.005005	-0.129440
C 	-0.556082	-1.022308	-0.037942
H 	2.481581	0.869892	0.260359
H 	1.883650	0.107172	-1.260888
H 	2.449833	-0.862427	0.067915
H 	0.564078	-0.051521	1.544308
H 	-0.247184	1.381071	-1.074714
H 	-0.812196	1.888268	0.583646
H 	-0.824634	-1.833743	0.662072
H 	-0.374094	-1.479580	-1.053621
