13
02/13/2019 22:15, XYZ structure generated by mol3D Class, molSimplify
C 	1.938772	-0.606483	0.000236
O 	1.335575	0.667670	-0.000290
C 	-0.020434	0.687923	0.000187
C 	-0.864089	-0.344976	-0.000130
C 	-2.363893	-0.160524	0.000025
H 	1.655080	-1.178776	-0.893138
H 	1.654567	-1.178309	0.893549
H 	3.017229	-0.439265	0.000044
H 	-0.373204	1.717673	0.000091
H 	-0.484208	-1.363057	-0.000221
H 	-2.711463	0.387950	-0.883234
H 	-2.872701	-1.128613	-0.000718
H 	-2.711323	0.385824	0.884439
