9
02/13/2019 22:15, XYZ structure generated by mol3D Class, molSimplify
C 	-2.549605	-0.000222	-0.087231
C 	-1.090454	-0.036298	0.072047
C 	0.149092	0.056750	0.140445
C 	1.566110	0.061677	-0.018056
C 	2.772450	-0.043171	-0.086617
H 	-3.199477	0.595331	0.668110
H 	-2.868601	0.222769	-1.107246
H 	-2.972639	-1.018365	0.162220
H 	3.801327	-0.261037	0.031763
