16
02/13/2019 22:15, XYZ structure generated by mol3D Class, molSimplify
C 	-2.498116	-0.307667	0.024088
C 	-1.226274	0.533031	-0.052541
C 	0.037744	-0.315178	0.017348
N 	1.231949	0.506034	-0.094316
C 	2.456044	-0.268480	0.001747
H 	-3.394515	0.320172	-0.022184
H 	-2.547057	-1.022098	-0.805564
H 	-2.538822	-0.881042	0.958145
H 	-1.203868	1.111528	-0.983836
H 	-1.216643	1.262216	0.770954
H 	0.024160	-0.924424	0.944438
H 	0.042489	-1.028287	-0.819238
H 	1.221771	1.201933	0.647127
H 	3.322239	0.399101	-0.024344
H 	2.528329	-0.938846	-0.862903
H 	2.524403	-0.892517	0.911323
