8
02/13/2019 22:15, XYZ structure generated by mol3D Class, molSimplify
N 	-1.450154	-0.717072	-0.033516
C 	-0.454169	0.234350	-0.060207
O 	-0.624754	1.428744	-0.059973
C 	0.854894	-0.593291	-0.318503
O 	1.972826	-0.055695	0.259137
H 	-2.455045	-0.474452	1.358410
H 	-1.310959	-1.738919	1.392172
H 	0.723282	-1.724570	-0.936924
