14
03/25/2019 10:01, XYZ structure generated by mol3D Class, molSimplify
C 	-2.900985	-0.188354	-0.067165
O 	-1.547845	-0.513565	0.049690
C 	-0.709151	0.633243	-0.009481
C 	0.627335	0.180497	0.129155
C 	1.853400	0.129745	0.062403
C 	3.308789	-0.231957	-0.094641
H 	-3.363682	-1.211078	0.510189
H 	-3.308071	-0.149461	-1.291033
H 	-3.194579	0.947109	0.434637
H 	-1.077517	1.338344	0.721312
H 	-0.792010	1.074552	-1.023000
H 	3.746653	0.720079	-0.739786
H 	3.902322	-0.445128	1.025695
H 	3.495021	-1.325347	-0.667993
