12
02/13/2019 22:15, XYZ structure generated by mol3D Class, molSimplify
C 	1.618244	-0.715229	-0.034559
N 	0.376073	0.050390	-0.034714
C 	0.289196	1.528471	0.010065
C 	-0.789286	-0.679426	0.033307
O 	-1.923480	-0.287801	0.024515
H 	1.652917	-1.466331	-0.839745
H 	2.512105	-0.067138	-0.081507
H 	1.587296	-1.311849	0.841419
H 	0.385956	2.030301	-1.208013
H 	-0.859415	1.837583	0.570385
H 	1.358834	1.917140	0.623228
H 	-0.584718	-1.791251	0.082424
