9
02/13/2019 22:15, XYZ structure generated by mol3D Class, molSimplify
C 	-1.174358	-0.016016	0.082392
O 	-0.280634	1.130441	-0.093768
C 	0.974797	0.681541	0.073344
C 	0.993533	-0.653881	0.039751
O 	-0.315569	-1.147217	-0.068091
H 	-1.645343	0.019107	1.105512
H 	-1.917860	0.065370	-0.774332
H 	1.803754	1.397723	0.013211
H 	1.759329	-1.354606	-0.103225
