16
03/25/2019 10:01, XYZ structure generated by mol3D Class, molSimplify
C 	-2.771303	0.000985	0.127902
C 	-1.308763	0.267022	-0.127765
C 	-0.291561	-0.574101	-0.153026
C 	1.149062	-0.222156	-0.063917
C 	1.324928	1.349451	-0.001968
C 	2.169461	-1.074868	0.132330
H 	-3.800933	1.012485	-0.175500
H 	-2.784539	-1.099280	-0.605446
H 	-2.789397	-0.169170	1.587208
H 	-1.021959	1.302840	0.094908
H 	-0.531187	-1.675077	-0.096892
H 	2.348352	1.822038	0.750184
H 	0.042425	1.896982	0.473773
H 	1.493684	1.679071	-1.334005
H 	1.998452	-2.153182	0.146838
H 	3.305147	-0.873756	0.188205
