15
03/25/2019 10:01, XYZ structure generated by mol3D Class, molSimplify
C 	-2.190334	-0.545496	-0.479851
C 	-1.362879	0.169100	0.592393
C 	0.056771	0.424192	0.144696
N 	0.410016	1.590734	-0.242174
N 	0.843364	-0.715141	0.130089
N 	2.224513	-0.665659	-0.063309
H 	-3.221971	-0.681985	-0.146877
H 	-2.200371	0.040908	-1.406649
H 	-1.777115	-1.530507	-0.704351
H 	-1.790155	1.146341	0.823729
H 	-1.370023	-0.424999	1.516316
H 	1.388038	1.574237	-0.547878
H 	0.564671	-1.479626	0.723514
H 	2.418196	-0.506576	-1.047166
H 	2.619977	0.109454	0.468999
