14
02/13/2019 22:15, XYZ structure generated by mol3D Class, molSimplify
C 	-1.785034	0.442955	0.095967
C 	-0.768942	-0.771441	0.069585
N 	0.347795	-0.272649	-0.567441
C 	0.898696	0.977730	0.025402
C 	1.618958	-0.431391	0.175038
H 	-2.925836	-0.389775	-0.044292
H 	-1.679758	1.178045	1.242997
H 	-1.708412	1.272416	-1.018319
H 	-0.669448	-0.880310	1.146406
H 	-1.129282	-1.632944	-0.476203
H 	1.347211	1.684304	-0.603991
H 	0.453218	1.370705	0.952862
H 	1.679135	-0.923492	1.175169
H 	2.380497	-0.756404	-0.502784
