11
02/13/2019 22:15, XYZ structure generated by mol3D Class, molSimplify
C 	1.885618	-0.621957	-0.003037
C 	1.085322	0.644748	-0.002418
N 	-0.182240	0.797680	0.004991
N 	-0.893640	-0.421778	0.010397
C 	-2.146180	-0.213265	-0.008311
H 	1.240736	-1.499017	-0.000797
H 	2.541406	-0.643138	0.875228
H 	2.534743	-0.644429	-0.885593
H 	1.648727	1.580201	-0.009269
H 	-2.812035	-1.075394	-0.006304
H 	-2.569500	0.793777	-0.023189
