15
02/13/2019 22:15, XYZ structure generated by mol3D Class, molSimplify
C 	1.889185	0.027919	-0.420898
C 	0.807964	-0.395156	0.566951
C 	-0.608410	-0.100281	0.107946
C 	-0.955506	1.336070	0.076803
C 	-1.433587	-1.086913	-0.269367
H 	2.852722	-0.437634	-0.101391
H 	2.052280	1.169185	-0.433070
H 	1.576447	-0.265139	-1.410954
H 	0.958630	-1.479241	0.704659
H 	0.926817	0.113264	1.563904
H 	-1.955302	1.573866	-0.319327
H 	-0.838773	1.779764	1.046491
H 	-0.156991	1.773698	-0.575636
H 	-1.078549	-2.083584	-0.144140
H 	-2.410355	-0.827472	-0.705297
