12
03/25/2019 10:01, XYZ structure generated by mol3D Class, molSimplify
C 	1.093627	1.322370	0.066399
N 	1.094413	-0.031952	-0.421174
C 	0.909017	-1.141838	0.556735
C 	-0.096122	-0.780044	-0.450261
C 	-1.355705	-0.101732	-0.048171
N 	-2.327275	0.508840	0.117121
H 	-0.042072	1.924309	-0.496678
H 	0.950336	1.188954	1.565264
H 	2.322555	1.850390	-0.359096
H 	0.706502	-0.886542	1.651435
H 	1.677734	-1.930294	0.560663
H 	-0.256613	-1.319184	-1.342000
