13
02/13/2019 22:15, XYZ structure generated by mol3D Class, molSimplify
C 	2.048071	-0.600586	0.050560
C 	1.151550	0.655033	0.066704
C 	-0.127375	0.686501	-0.101591
C 	-1.016085	-0.425209	-0.217718
C 	-2.316870	-0.133882	0.116255
H 	1.433951	-1.506116	-0.597662
H 	3.136631	-0.462682	-0.399090
H 	2.179877	-0.884604	1.235494
H 	1.676089	1.550947	0.445110
H 	-0.508017	1.744759	0.015002
H 	-0.512329	-1.419658	-0.363685
H 	-2.548421	0.930337	0.455506
H 	-3.193433	-0.862184	0.230814
