14
02/13/2019 22:15, XYZ structure generated by mol3D Class, molSimplify
C 	2.060808	0.176104	0.079372
N 	0.860212	-0.672736	-0.201657
C 	-0.330653	-0.012738	0.488128
C 	-1.623149	-0.534591	-0.062102
C 	-1.297529	0.923216	-0.194001
H 	2.310818	0.396563	1.059679
H 	3.072534	-0.261191	-0.268285
H 	2.046560	1.089564	-0.490031
H 	0.834958	-0.816055	-1.200863
H 	-0.047609	-0.013188	1.588884
H 	-2.349287	-0.953427	0.635659
H 	-1.507267	-1.123306	-0.991978
H 	-0.899224	1.297595	-1.068083
H 	-1.941660	1.580481	0.424125
