17
03/25/2019 10:01, XYZ structure generated by mol3D Class, molSimplify
C 	-2.524669	0.084464	-0.248113
C 	-1.295382	-0.629053	0.252531
N 	-0.017510	-0.200667	-0.278188
C 	0.405101	1.147596	0.032538
C 	1.220053	-0.016414	0.491455
C 	2.386446	-0.380997	-0.283329
H 	-2.743560	0.082091	-1.436977
H 	-2.567600	1.181344	0.057275
H 	-3.338796	-0.532731	0.235601
H 	-1.393219	-1.742607	-0.065214
H 	-1.185429	-0.545578	1.344214
H 	-0.233566	1.720149	0.788941
H 	0.827586	1.690957	-0.830122
H 	1.270001	-0.154928	1.605967
H 	2.730496	-1.428132	-0.090440
H 	2.279159	-0.098858	-1.317070
H 	3.258392	0.250359	0.045271
