13
02/13/2019 22:15, XYZ structure generated by mol3D Class, molSimplify
C 	-2.259260	-0.152167	-0.030138
N 	-0.774422	-0.342351	0.086566
C 	0.028062	0.730045	0.031048
N 	1.308381	0.734470	-0.080669
C 	1.993019	-0.585142	0.001687
H 	-2.683479	-1.127116	-0.442584
H 	-2.395730	0.799677	-0.793993
H 	-2.732149	0.119501	0.960520
H 	-0.409511	-1.259566	0.138529
H 	-0.547873	1.639843	-0.070221
H 	1.853849	-1.166454	-0.922924
H 	1.577075	-1.211871	0.910392
H 	3.050198	-0.428586	0.107400
