12
02/13/2019 22:15, XYZ structure generated by mol3D Class, molSimplify
C 	-2.430786	-0.257076	-0.201769
C 	-1.020253	0.480591	0.167010
N 	0.196369	-0.342807	0.319703
C 	1.368595	0.300877	-0.134012
O 	2.477846	-0.224754	-0.112280
H 	-2.923756	-0.859626	0.730142
H 	-3.160234	0.589227	-0.657671
H 	-2.216279	-0.964395	-1.096331
H 	-1.125055	1.081418	1.062502
H 	-0.823557	1.260731	-0.687041
H 	0.208838	-1.327498	0.694251
H 	1.189559	1.414997	-0.696579
