17
03/25/2019 10:01, XYZ structure generated by mol3D Class, molSimplify
C 	2.246640	0.355553	0.175200
N 	1.062451	-0.224009	-0.486948
C 	0.063504	-0.721101	0.387197
C 	-1.199217	-1.166009	-0.273488
C 	-1.145726	0.081947	0.481587
C 	-1.313296	1.435782	-0.258824
H 	2.639494	-0.109537	1.084385
H 	1.999011	1.460775	0.447110
H 	3.074218	0.403561	-0.536384
H 	1.382710	-1.047993	-0.948134
H 	0.311802	-1.401053	1.220850
H 	-1.392921	-1.037574	-1.312634
H 	-1.683138	-2.073480	0.083805
H 	-1.676292	0.026588	1.474059
H 	-0.701749	2.190010	0.396998
H 	-2.400784	1.659674	-0.341638
H 	-0.910551	1.316935	-1.304871
