19
03/25/2019 10:02, XYZ structure generated by mol3D Class, molSimplify
C 	-2.991528	0.521827	0.000725
C 	-1.841736	-0.498860	0.024224
C 	-0.369234	0.172115	0.068150
N 	0.643438	-0.826381	-0.212250
C 	2.040705	-0.571084	0.253061
C 	2.541796	0.896785	-0.062218
H 	-2.816798	1.399693	-0.838329
H 	-3.233194	1.228367	0.936555
H 	-3.907202	0.181706	-0.440044
H 	-2.007415	-1.294570	0.933594
H 	-1.975393	-1.181282	-0.953004
H 	-0.369202	1.098719	-0.726410
H 	-0.226009	0.529162	1.057933
H 	0.701354	-1.132560	-1.171592
H 	2.775304	-1.287672	-0.131824
H 	2.120353	-0.684415	1.403999
H 	2.199832	1.764947	0.839279
H 	3.726389	0.801946	0.028598
H 	2.179131	1.427284	-1.200585
