10
03/25/2019 10:02, XYZ structure generated by mol3D Class, molSimplify
O 	-1.988537	0.094323	0.004555
C 	-0.648560	-0.045157	-0.007930
N 	0.026430	-1.156252	-0.006692
C 	1.352981	-0.747182	0.004616
C 	1.447932	0.608386	0.006808
N 	0.129671	1.060996	-0.004138
H 	-2.338499	-0.810240	0.048781
H 	2.155657	-1.478422	-0.001113
H 	2.283120	1.293690	0.006191
H 	-0.203782	2.010663	-0.017290
