10
02/13/2019 22:15, XYZ structure generated by mol3D Class, molSimplify
C 	1.709171	-0.504060	0.018752
N 	0.375606	-0.015814	-0.070405
O 	0.255412	1.371954	0.011241
C 	-0.776068	-0.716541	-0.009773
O 	-1.885760	-0.163620	0.021217
H 	2.213462	-0.126950	0.942534
H 	2.321577	-0.173974	-0.831593
H 	1.683123	-1.616296	0.078801
H 	-0.736402	1.469722	-0.000256
H 	-0.654310	-1.800290	-0.062032
