9
02/11/2019 18:37, XYZ structure generated by mol3D Class, molSimplify
C 	-1.735308	0.180691	-0.009610
N 	-0.345747	-0.484603	-0.049211
C 	0.686978	0.339592	0.009385
O 	1.850817	-0.067560	0.021520
H 	-2.166978	0.473218	-0.980608
H 	-1.657818	1.122377	0.678405
H 	-2.431396	-0.658126	0.641984
H 	-0.260170	-1.526740	-0.339227
H 	0.390532	1.429280	0.344346
