14
02/13/2019 22:15, XYZ structure generated by mol3D Class, molSimplify
C 	1.854260	-0.615554	0.073005
C 	0.536653	0.094826	0.002307
C 	0.474667	1.396924	-0.076714
C 	-0.731199	-0.684722	-0.039333
N 	-2.009839	0.061290	-0.009312
H 	2.363284	-0.875006	-1.145335
H 	2.624248	0.267245	0.478150
H 	1.829423	-1.806801	0.540351
H 	-0.430978	2.025214	-0.093335
H 	1.402091	1.945609	-0.350254
H 	-0.829015	-1.405426	-0.870066
H 	-0.728555	-1.420716	0.753988
H 	-2.740872	-0.588424	-0.219961
H 	-2.168152	0.175589	0.979004
