16
03/25/2019 10:01, XYZ structure generated by mol3D Class, molSimplify
C 	2.623537	-0.223383	0.003709
O 	1.335429	0.350324	-0.005926
C 	0.267020	-0.498479	-0.000512
C 	-0.982543	-0.038011	0.000421
C 	-2.147628	-1.006350	-0.000510
C 	-1.233454	1.451209	0.002714
H 	3.166030	0.118172	0.892662
H 	2.580067	-1.320290	0.018567
H 	3.170837	0.095580	-0.890148
H 	0.506863	-1.564279	0.001214
H 	-2.150266	-1.651741	-0.886562
H 	-2.143253	-1.661234	0.878895
H 	-3.099459	-0.464384	0.002260
H 	-0.783734	1.930588	0.878904
H 	-2.303418	1.680268	0.006627
H 	-0.789010	1.930522	-0.877707
