11
02/13/2019 22:15, XYZ structure generated by mol3D Class, molSimplify
O 	2.158247	-0.015466	-0.140857
C 	1.051759	0.008544	0.340128
C 	-0.194832	0.007759	-0.457800
C 	-1.409639	0.738654	0.093045
C 	-1.377288	-0.741148	0.087778
H 	0.898833	0.079053	1.426519
H 	-0.006774	0.005331	-1.533359
H 	-2.023770	1.295470	-0.607480
H 	-1.269739	1.251855	1.057253
H 	-1.274903	-1.268447	1.037095
H 	-1.977812	-1.282160	-0.630821
