11
02/13/2019 22:15, XYZ structure generated by mol3D Class, molSimplify
C 	1.095733	1.177860	-0.156420
C 	0.402237	-0.083924	0.378749
O 	0.942917	-1.252545	-0.231135
C 	-1.039431	-0.045682	0.118335
C 	-2.214721	0.093643	-0.090136
H 	2.174963	1.170533	0.106994
H 	1.007112	1.233601	-1.258126
H 	0.612701	2.038477	0.303559
H 	0.557876	-0.178841	1.454650
H 	1.848221	-1.315852	0.160956
H 	-3.223152	0.232453	-0.408382
