12
03/25/2019 10:01, XYZ structure generated by mol3D Class, molSimplify
C 	2.955900	0.261734	-0.038690
C 	1.547168	-0.158892	0.154379
C 	0.400393	-0.487359	-0.009058
C 	-0.949391	-1.003245	0.106194
N 	-2.046531	-0.262146	0.012931
N 	-2.031333	1.127321	-0.256619
H 	2.526277	2.037282	0.217383
H 	3.364377	-0.187285	-1.957087
H 	4.056253	-0.790166	1.221976
H 	-1.210471	-1.988333	0.161987
H 	-2.799716	1.552104	0.338213
H 	-1.242285	1.592580	0.324065
