12
03/25/2019 10:02, XYZ structure generated by mol3D Class, molSimplify
N 	1.844260	-0.560827	0.145656
N 	0.582587	0.045855	-0.442849
C 	0.119677	1.476928	0.056803
C 	-1.255064	0.941903	0.087654
C 	-0.688718	-0.534827	-0.154610
O 	-0.983609	-1.696450	0.145541
H 	1.846022	-0.208190	1.281446
H 	2.842787	-0.090217	-0.305616
H 	0.316205	1.717385	1.226699
H 	0.382438	2.373942	-0.669961
H 	-1.922988	1.326280	-0.712362
H 	-1.641712	0.915007	1.120133
