16
03/25/2019 10:01, XYZ structure generated by mol3D Class, molSimplify
C 	0.422801	1.702471	0.017375
C 	-0.043123	0.277180	-0.385052
C 	0.966229	-0.806938	-0.194315
C 	2.293524	-0.766893	0.139089
C 	-1.285881	-0.073426	0.443430
C 	-2.426842	-0.608456	-0.045332
H 	0.580438	1.806004	1.096687
H 	1.336594	2.060377	-0.506119
H 	-0.332541	2.455607	-0.214628
H 	-0.328228	0.288571	-1.435047
H 	0.591950	-1.773011	-0.550421
H 	2.837760	-1.723049	0.204957
H 	2.800339	0.113004	0.508087
H 	-1.219733	0.052760	1.558503
H 	-2.637730	-0.717577	-1.086509
H 	-3.230971	-1.004726	0.588983
