8
02/13/2019 22:15, XYZ structure generated by mol3D Class, molSimplify
O 	1.371371	-0.981720	-0.089704
C 	1.322726	0.237423	0.136418
C 	0.035884	0.968849	-0.060577
C 	-1.133136	0.121753	0.047389
N 	-2.084702	-0.596764	0.011398
H 	2.372431	0.711722	0.260989
H 	-0.179283	1.917834	0.603663
H 	0.131801	1.368260	-1.066632
