11
02/11/2019 18:37, XYZ structure generated by mol3D Class, molSimplify
C 	-1.533381	-0.108334	-0.151735
C 	-0.147762	-0.024996	0.521134
C 	0.983171	-0.623332	-0.167281
N 	0.957888	0.804117	-0.016716
H 	-1.349056	-0.380151	-1.251621
H 	-2.295231	-0.863445	0.304333
H 	-2.068058	0.883583	-0.092585
H 	-0.148607	0.104005	1.557601
H 	0.800171	-0.915044	-1.236071
H 	1.729798	-1.119854	0.453227
H 	0.776873	1.357955	-0.933640
