13
03/25/2019 10:01, XYZ structure generated by mol3D Class, molSimplify
N 	1.886840	-0.745296	-0.048863
C 	0.794532	0.094239	-0.035436
N 	0.801697	1.361901	0.109617
C 	-0.519867	-0.588363	-0.265076
C 	-1.613181	-0.279393	0.698087
N 	-1.642905	0.245024	-0.655751
H 	2.755636	-0.394687	0.329586
H 	1.731546	-1.727627	0.109562
H 	1.738817	1.729928	0.279806
H 	-0.476452	-1.570016	-0.737117
H 	-2.365022	-1.030961	0.930029
H 	-1.360518	0.403421	1.504246
H 	-1.309345	1.209521	-0.640914
