11
02/13/2019 22:15, XYZ structure generated by mol3D Class, molSimplify
C 	-1.926770	-0.550176	-0.009082
N 	-1.261365	0.740964	-0.035230
C 	0.003589	0.732963	0.029700
N 	0.821347	-0.393479	0.176152
O 	2.155361	-0.126350	-0.176077
H 	-1.689083	-1.154264	-0.900136
H 	-3.008605	-0.399718	0.003433
H 	-1.651181	-1.141083	0.878260
H 	0.569611	1.665043	0.028847
H 	0.514522	-1.202690	-0.356634
H 	2.641498	-0.287021	0.644038
