11
02/13/2019 22:15, XYZ structure generated by mol3D Class, molSimplify
N 	1.873051	-0.196137	0.099039
N 	0.601758	-0.670228	-0.177791
C 	-0.505006	0.151263	-0.043217
N 	-1.666683	-0.598841	0.037029
N 	-0.516822	1.459777	0.015447
H 	2.337042	0.296638	-0.730303
H 	2.124958	0.302883	0.967436
H 	0.571761	-1.700034	0.248045
H 	-1.644149	-1.564006	0.445151
H 	-2.613497	-0.257647	0.133659
H 	0.378887	1.896754	-0.184356
