8
02/11/2019 18:37, XYZ structure generated by mol3D Class, molSimplify
C 	-1.348486	-0.101455	0.013673
C 	0.082810	0.098379	-0.102364
O 	0.775260	-1.063526	-0.136510
O 	0.595493	1.204969	0.162025
H 	-1.658879	0.774232	1.881951
H 	-1.548647	-1.909988	-0.024274
H 	-1.701791	1.010271	-1.502596
H 	1.715020	-0.782835	0.296004
