13
02/13/2019 22:15, XYZ structure generated by mol3D Class, molSimplify
O 	-2.214399	-0.253717	-0.165864
C 	-0.915854	-0.264931	0.427707
C 	-0.109230	0.889139	-0.089522
C 	1.382692	0.520202	0.105291
O 	1.685169	-0.818774	-0.212496
H 	-1.971730	-0.331964	-1.129619
H 	-0.441934	-1.205617	0.149364
H 	-1.069170	-0.345906	1.481360
H 	-0.283039	1.878480	0.463380
H 	-0.136307	0.973699	-1.237779
H 	1.639995	0.785837	1.171299
H 	2.104453	1.102468	-0.615646
H 	2.600717	-0.927696	-0.015154
