11
02/13/2019 22:15, XYZ structure generated by mol3D Class, molSimplify
O 	-1.935388	0.349675	-0.075344
C 	-0.898676	-0.672917	-0.084924
C 	0.374025	-0.194224	0.541843
C 	1.647381	-0.330716	-0.231113
O 	0.977530	0.887931	-0.073347
H 	-1.628248	1.188083	-0.379564
H 	-0.809151	-1.082343	-1.095154
H 	-1.292731	-1.488496	0.618511
H 	0.440068	-0.180991	1.643839
H 	2.585888	-0.390815	0.354443
H 	1.574231	-0.869841	-1.205444
