11
03/25/2019 10:02, XYZ structure generated by mol3D Class, molSimplify
N 	-2.082891	-0.125664	-0.025722
C 	-0.808641	-0.032767	0.002598
N 	0.080021	-1.080381	0.011162
C 	1.437116	-0.647290	-0.025549
C 	1.405921	0.682742	-0.032353
N 	0.050378	1.084167	0.081260
H 	-2.409342	0.823770	-0.100975
H 	-0.261451	-2.017126	0.196660
H 	2.260783	-1.370381	-0.053749
H 	2.243199	1.370830	0.002421
H 	-0.317113	2.033929	-0.312619
