11
02/13/2019 22:15, XYZ structure generated by mol3D Class, molSimplify
O 	2.149665	0.347584	-0.088878
C 	1.002403	-0.283799	0.263763
C 	-0.174725	-0.251308	-0.498710
C 	-1.185747	0.804708	0.068691
C 	-1.554641	-0.663618	0.163790
H 	0.765505	-0.990726	1.377687
H 	0.035966	-0.376570	-1.553410
H 	-1.755963	1.452829	-0.540270
H 	-0.870237	1.455150	0.887084
H 	-1.461712	-1.243893	1.030463
H 	-2.437408	-1.121647	-0.496021
