12
03/25/2019 10:01, XYZ structure generated by mol3D Class, molSimplify
C 	2.463765	-0.010663	-0.260585
C 	1.126626	-0.735424	0.089879
C 	-0.131711	0.190034	0.188151
O 	-0.059535	1.387442	0.212037
C 	-1.483880	-0.550274	0.083171
O 	-2.543817	-0.050307	-0.272439
H 	3.213375	-0.816672	0.034009
H 	2.613309	0.947898	0.343066
H 	2.450315	0.208136	-1.529612
H 	0.987081	-1.732979	-0.509399
H 	1.084356	-1.202877	1.220392
H 	-1.287265	-1.673443	0.202147
