13
02/13/2019 22:15, XYZ structure generated by mol3D Class, molSimplify
C 	0.940782	1.354290	-0.132199
C 	0.152170	0.077738	-0.050716
C 	0.876262	-1.338822	-0.024348
C 	-1.214630	-0.064254	-0.568070
O 	-0.991824	-0.013080	0.873108
H 	1.140754	1.648603	-1.298082
H 	2.044095	1.182685	0.446877
H 	0.173998	2.184817	0.454650
H 	0.763118	-1.979697	1.419468
H 	0.061286	-2.153465	-0.904497
H 	2.266041	-0.948781	-0.513603
H 	-1.559322	-0.988206	-1.031769
H 	-1.553000	0.916906	-1.010549
