13
02/13/2019 22:15, XYZ structure generated by mol3D Class, molSimplify
C 	0.943773	1.258784	-0.064125
C 	0.134095	-0.021276	-0.018342
C 	0.950001	-1.268207	-0.077669
C 	-1.233587	-0.018418	-0.568459
O 	-1.039663	0.046031	0.832432
H 	1.423981	1.369352	-1.059827
H 	1.692570	1.230524	0.737035
H 	0.222995	2.072410	0.145144
H 	1.522981	-1.366307	0.862853
H 	0.331824	-2.167948	-0.204638
H 	1.770084	-1.239479	-0.868964
H 	-1.679558	-0.916176	-0.992888
H 	-1.661331	0.871923	-0.967164
