11
02/13/2019 22:15, XYZ structure generated by mol3D Class, molSimplify
N 	-1.951923	0.480401	-0.109865
C 	-1.011763	-0.524276	0.084070
N 	0.261905	-0.216045	-0.448123
C 	1.038869	0.881169	0.125032
C 	1.634589	-0.587807	0.181810
H 	-2.880923	0.255897	0.359887
H 	-1.106894	-1.692505	0.501049
H 	0.485846	1.352805	0.929614
H 	1.364306	1.551375	-0.793999
H 	1.707170	-1.234680	1.159927
H 	2.512150	-0.741533	-0.532162
