12
03/25/2019 10:02, XYZ structure generated by mol3D Class, molSimplify
O 	2.482460	-0.571614	0.613278
C 	1.897247	0.455866	-0.068364
C 	0.433844	0.553775	-0.589987
C 	-0.393262	-0.693263	-0.643241
C 	-1.632184	-0.311472	0.663073
O 	-2.842624	0.374499	-0.088220
H 	2.578063	1.337239	-0.268778
H 	-0.107070	1.178922	0.177448
H 	0.385786	1.203298	-1.489918
H 	-0.937895	-0.811296	-1.868687
H 	0.335218	-1.860258	-0.416508
H 	-1.345621	-0.767689	2.441675
