8
02/13/2019 22:15, XYZ structure generated by mol3D Class, molSimplify
N 	1.017477	1.125012	-0.000273
C 	0.448644	-0.119033	0.000539
N 	0.994827	-1.268660	-0.000265
C 	-1.015062	-0.065586	0.000221
N 	-2.167681	0.016657	-0.000218
H 	0.452194	1.957185	0.001411
H 	2.019263	1.227987	-0.000896
H 	2.013553	-1.188366	0.000940
