16
03/25/2019 10:01, XYZ structure generated by mol3D Class, molSimplify
C 	-1.439285	-0.006901	0.384264
C 	-0.653656	-1.211114	-0.123190
C 	0.824357	-0.789774	-0.503584
C 	1.418931	-0.011781	0.713664
C 	0.720705	0.781032	-0.455818
C 	-0.643169	1.226245	-0.142151
H 	-2.463821	0.133065	-0.036717
H 	-1.374230	0.084812	1.466025
H 	-0.678083	-1.939393	0.687973
H 	-1.201871	-1.780493	-0.926773
H 	1.382757	-1.504747	-1.149378
H 	2.468585	0.068014	0.755655
H 	0.764941	-0.150996	1.654120
H 	1.343712	1.495571	-1.069276
H 	-0.752209	2.065288	0.666604
H 	-1.005115	1.675244	-1.057664
