13
02/13/2019 22:15, XYZ structure generated by mol3D Class, molSimplify
C 	1.791015	0.420231	-0.169235
C 	0.901004	-0.778832	-0.046658
C 	-0.426780	-0.297237	0.504433
C 	-1.670313	-0.245603	-0.233524
O 	-0.902279	0.945840	-0.043709
H 	1.723442	1.563171	0.766888
H 	1.574222	0.978787	-1.462572
H 	2.900461	-0.299781	0.011126
H 	0.724117	-1.452477	-1.117836
H 	1.242046	-1.491711	0.862124
H 	-0.444240	-0.518826	1.645540
H 	-2.685782	-0.395537	0.309634
H 	-1.679704	-0.645969	-1.253447
