16
03/25/2019 10:02, XYZ structure generated by mol3D Class, molSimplify
C 	1.828901	-0.071377	-0.449660
C 	0.814967	-0.071913	0.745947
C 	-0.400108	0.795298	0.719159
N 	-0.753427	1.498854	-0.569822
C 	-0.493720	-0.732488	0.627337
N 	-1.047347	-1.361975	-0.577352
H 	0.907373	-0.832749	-1.470676
H 	2.203331	1.293712	-0.843173
H 	2.858025	-0.941920	0.049546
H 	1.306722	-0.341039	1.636816
H 	-0.723390	1.345767	1.578067
H 	0.452877	1.293656	-1.325588
H 	-1.697683	0.807550	-1.093226
H 	-0.759002	-1.277518	1.550200
H 	-0.629944	-0.965434	-1.520328
H 	-2.218303	-1.356013	-0.416908
