13
02/13/2019 22:15, XYZ structure generated by mol3D Class, molSimplify
C 	-1.639723	0.761491	0.030200
C 	-0.754367	-0.374351	0.382416
O 	-0.016285	-1.130084	-0.656329
C 	0.736966	-0.320633	0.315012
C 	1.658249	0.759358	-0.061057
H 	-2.598500	0.474585	-0.554028
H 	-1.016564	1.450523	-0.605775
H 	-1.827713	1.303826	0.996009
H 	-1.219429	-1.136948	1.108808
H 	1.137545	-1.010875	1.127088
H 	1.656217	0.555029	-1.855062
H 	3.156603	0.288075	0.529709
H 	0.956907	2.019392	0.674648
