11
03/25/2019 10:02, XYZ structure generated by mol3D Class, molSimplify
C 	-2.094908	-0.053027	-0.013604
C 	-0.586243	-0.043648	0.045005
N 	0.153803	-1.156820	-0.047190
C 	1.414959	-0.712993	-0.065202
C 	1.413992	0.657769	0.035515
O 	0.105952	1.133668	0.058274
H 	-2.595086	0.118349	1.229093
H 	-2.348087	-1.340172	-0.491590
H 	-2.224295	0.994211	-0.955658
H 	2.205243	-1.424439	-0.093045
H 	2.269545	1.354451	0.021610
