13
02/13/2019 22:15, XYZ structure generated by mol3D Class, molSimplify
C 	2.053112	-0.624175	-0.006204
C 	1.205876	0.635844	-0.016458
C 	-0.089701	0.754078	-0.006733
C 	-1.051584	-0.413402	-0.024639
C 	-2.382344	-0.178938	0.053197
H 	2.117596	-1.035638	-1.105965
H 	3.097685	-0.389023	0.307822
H 	1.536866	-1.295660	0.820359
H 	1.800185	1.579503	0.126354
H 	-0.512785	1.730876	-0.035140
H 	-0.510007	-1.318957	0.046462
H 	-2.720109	0.890868	-0.274237
H 	-3.098268	-0.970552	0.124319
