9
02/13/2019 22:15, XYZ structure generated by mol3D Class, molSimplify
C 	1.145061	-0.279447	0.006399
C 	0.594037	0.952928	-0.037738
N 	-0.734691	0.797949	-0.036832
C 	-1.028819	-0.574415	-0.046151
N 	0.156258	-1.163323	0.041403
H 	2.150878	-0.599203	-0.047904
H 	1.019055	1.935161	0.262334
H 	-1.390735	1.615954	0.545682
H 	-2.000870	-0.993168	0.099032
