14
03/25/2019 10:02, XYZ structure generated by mol3D Class, molSimplify
O 	2.005427	-0.096039	-0.243106
C 	0.737362	-0.008203	0.374469
C 	-0.100621	1.221788	-0.040545
C 	-1.509317	0.677633	-0.045003
C 	-1.517141	-0.654949	-0.038803
C 	-0.119637	-1.218987	-0.025240
H 	2.541250	0.644810	0.071073
H 	0.843227	-0.004115	1.469706
H 	0.034274	2.076621	0.632073
H 	0.198849	1.541624	-1.048712
H 	-2.393142	1.308942	-0.083398
H 	-2.406485	-1.280070	-0.076216
H 	0.179848	-1.552595	-1.027336
H 	0.012157	-2.069569	0.652402
