9
02/11/2019 18:37, XYZ structure generated by mol3D Class, molSimplify
N 	1.517026	-0.513416	-0.101423
C 	0.595391	0.558173	0.090979
C 	-0.804317	0.113659	-0.058616
C 	-1.981118	-0.186404	-0.039323
H 	1.710115	-0.960615	0.878003
H 	2.499525	-0.113017	-0.632958
H 	0.664906	1.110633	1.001543
H 	0.778469	1.332364	-0.700065
H 	-2.990000	-0.554970	0.218928
