13
03/25/2019 10:02, XYZ structure generated by mol3D Class, molSimplify
C 	1.654717	-0.085604	-0.667605
C 	0.768516	0.010985	0.684105
C 	-0.232042	-1.100132	0.524741
O 	-1.117641	-0.545728	-0.723540
N 	-1.257461	0.856508	-0.282413
C 	-0.320642	1.110434	0.568906
H 	0.845829	-0.626897	-1.522007
H 	1.938298	1.171921	-1.027229
H 	2.661554	-0.719167	-0.408047
H 	1.376807	0.064199	1.583739
H 	-1.000677	-1.183967	1.505364
H 	0.140122	-2.088661	0.214740
H 	-0.114401	2.153728	1.003371
