11
02/13/2019 22:15, XYZ structure generated by mol3D Class, molSimplify
O 	1.215067	-0.854920	-0.148444
C 	0.723693	0.347670	0.470800
C 	-0.010365	1.259534	-0.512533
C 	-0.764862	0.285727	0.423004
O 	-1.363458	-0.912415	-0.139640
H 	2.756383	-0.554587	0.155769
H 	1.211485	0.775025	1.339399
H 	0.008487	2.320824	-0.300305
H 	-0.072300	1.013961	-1.535845
H 	-1.376569	0.843307	1.182452
H 	-0.675203	-1.475162	-0.487575
