9
02/13/2019 22:15, XYZ structure generated by mol3D Class, molSimplify
C 	0.003090	1.223269	0.011191
C 	-1.118593	0.200574	-0.000979
N 	-0.732365	-1.029100	0.005347
N 	0.748614	-0.991555	0.024200
C 	1.098482	0.185455	-0.040769
H 	0.033307	1.923946	-0.838272
H 	0.046646	1.731528	0.987065
H 	-2.254277	0.452456	-0.179194
H 	2.151254	0.313449	-0.016305
