10
02/11/2019 18:37, XYZ structure generated by mol3D Class, molSimplify
C 	1.435512	-0.493581	-0.000536
C 	0.541410	0.715166	0.000388
N 	-0.738429	0.688557	-0.000371
N 	-1.353188	-0.505342	0.000652
H 	1.258690	-1.122470	-0.883865
H 	1.261093	-1.120020	0.886154
H 	2.488507	-0.202882	-0.000922
H 	0.984830	1.708165	0.002230
H 	-2.355925	-0.492630	-0.006251
H 	-0.857642	-1.383015	0.000531
