11
02/13/2019 22:15, XYZ structure generated by mol3D Class, molSimplify
O 	1.693831	-0.165371	-0.325035
C 	0.598541	0.089957	0.445790
C 	-0.552999	1.027628	0.077333
O 	-1.480249	-0.046862	-0.302745
C 	-0.514684	-0.953206	0.079267
H 	2.385322	0.458495	-0.094146
H 	0.933653	0.079176	1.474748
H 	-1.020456	1.638047	0.874442
H 	-0.271494	1.887386	-0.654203
H 	-0.794701	-1.729115	0.894905
H 	0.019983	-1.507378	-0.734200
