13
02/13/2019 22:15, XYZ structure generated by mol3D Class, molSimplify
N 	-1.330292	-0.912571	-0.186556
C 	-0.722923	0.253482	0.368003
C 	0.095091	1.315869	-0.465973
C 	0.704291	0.324198	0.489818
N 	1.269272	-0.782723	-0.280870
H 	-1.467292	-1.718097	0.435811
H 	-2.305512	-0.488186	-0.356280
H 	-1.291471	0.699530	1.236156
H 	0.070150	2.337296	-0.005621
H 	0.271808	1.280435	-1.564999
H 	1.293498	0.549356	1.427971
H 	2.263841	-0.552168	-0.412108
H 	1.102410	-1.647812	0.315159
