12
02/13/2019 22:15, XYZ structure generated by mol3D Class, molSimplify
C 	-1.912631	0.455892	-0.023757
C 	-0.994045	-0.541912	-0.018153
C 	0.386805	-0.400433	0.491044
C 	1.084240	0.809394	0.058365
N 	1.469713	-0.498118	-0.411007
H 	-1.688848	1.452505	0.325952
H 	-2.864595	0.296081	-0.447025
H 	-1.353853	-1.548471	-0.343406
H 	0.639597	-0.797679	1.509696
H 	0.560287	1.473458	-0.663631
H 	1.842969	1.251055	0.742134
H 	1.175977	-0.528314	-1.344863
