10
03/25/2019 10:02, XYZ structure generated by mol3D Class, molSimplify
O 	2.036926	-0.090650	0.032491
N 	0.584106	-0.039470	-0.048282
C 	-0.092359	1.104924	-0.004503
C 	-1.454926	0.668881	0.037662
C 	-1.388045	-0.722299	-0.031680
N 	-0.132717	-1.160630	0.020198
H 	2.253026	0.858289	-0.194929
H 	0.439463	2.071768	0.040217
H 	-2.258213	1.324894	-0.020875
H 	-2.266448	-1.342953	0.032486
