16
03/25/2019 10:02, XYZ structure generated by mol3D Class, molSimplify
C 	-2.311061	-0.095827	0.080320
C 	-0.761918	-0.043519	0.027902
C 	0.022235	-1.148540	0.133132
C 	1.490138	-0.853741	-0.249782
C 	1.531600	0.717745	0.318230
C 	0.092605	1.259265	-0.275432
H 	-2.744446	-0.427406	-0.862605
H 	-2.666601	-0.646780	0.992863
H 	-2.554673	1.059916	0.161943
H 	-0.299910	-2.242277	0.257135
H 	1.582943	-1.098565	-1.453734
H 	2.413259	-1.710855	0.275904
H 	2.717228	1.435731	-0.083196
H 	1.436733	0.721689	1.733936
H 	-0.301597	2.463223	0.204123
H 	0.198154	1.364769	-1.635610
