18
03/25/2019 10:01, XYZ structure generated by mol3D Class, molSimplify
C 	1.839940	-0.996679	-0.382836
C 	0.973623	-0.331313	0.700621
C 	0.013281	0.714036	0.128773
C 	0.345214	1.866295	-0.475345
C 	-1.402728	0.338304	0.424479
C 	-1.742901	-1.082609	-0.281390
H 	2.582896	-0.233811	-0.844638
H 	2.426103	-1.874081	0.023770
H 	1.133042	-1.579584	-1.143997
H 	1.665893	0.050401	1.574950
H 	0.273363	-1.139363	1.168283
H 	-0.517871	2.465419	-0.762227
H 	1.269828	2.199975	-0.885893
H 	-2.193510	1.063635	0.127416
H 	-1.440883	0.198423	1.475444
H 	-1.070069	-1.910431	0.132065
H 	-2.796130	-1.511935	-0.106625
H 	-1.615166	-1.108990	-1.384875
