8
02/13/2019 22:15, XYZ structure generated by mol3D Class, molSimplify
O 	1.333799	-0.839533	-0.074836
N 	1.234442	0.535752	0.089972
C 	-0.004756	1.000428	-0.013113
C 	-1.305665	0.308653	-0.091483
O 	-1.440050	-0.869410	0.090446
H 	2.316858	-1.039973	-0.076656
H 	-0.063125	2.052914	0.202479
H 	-2.186738	1.030477	-0.378290
