13
02/13/2019 22:15, XYZ structure generated by mol3D Class, molSimplify
C 	1.824231	0.214533	-0.324694
C 	0.767937	-0.437200	0.537831
C 	-0.599366	-0.128231	0.048312
N 	-0.911164	1.194361	-0.026116
N 	-1.498219	-0.999378	-0.168590
H 	1.840312	1.364709	-0.218673
H 	1.564152	0.034161	-1.448102
H 	2.813231	-0.135816	-0.134741
H 	0.885044	-0.157361	1.640614
H 	0.845203	-1.574874	0.514822
H 	-0.189177	1.897593	-0.073066
H 	-1.791117	1.276531	-0.484152
H 	-1.192556	-1.974608	0.058823
