8
02/11/2019 18:37, XYZ structure generated by mol3D Class, molSimplify
N 	1.154863	-0.605631	0.030239
C 	-0.052579	0.156097	-0.042528
N 	-1.156222	-0.605151	0.034776
O 	0.037532	1.375618	-0.002995
H 	1.200729	-1.524053	0.101411
H 	2.022649	-0.101085	-0.127787
H 	-2.104825	-0.312329	0.204496
H 	-1.069276	-1.617141	-0.527575
