9
02/11/2019 18:37, XYZ structure generated by mol3D Class, molSimplify
N 	1.488668	-0.516236	-0.126023
C 	0.604268	0.617080	0.023489
C 	-0.809620	0.191210	-0.014774
C 	-1.920431	-0.266475	0.000301
H 	1.092656	-1.313188	0.434209
H 	2.478890	-0.329950	0.262667
H 	0.769011	1.230674	0.963324
H 	0.839111	1.304187	-0.784514
H 	-2.887793	-0.709534	0.041331
