17
03/25/2019 10:02, XYZ structure generated by mol3D Class, molSimplify
N 	2.919227	-0.147156	0.328458
C 	1.648496	-0.491223	-0.326549
C 	0.685985	0.598617	0.142756
C 	-0.777557	0.751459	-0.306994
C 	-1.509800	-0.471809	0.118217
O 	-3.010282	-0.257925	-0.001572
H 	3.287744	0.760070	-0.045118
H 	3.519960	-0.965722	0.033671
H 	1.281020	-1.417484	0.067367
H 	1.754886	-0.681143	-1.464205
H 	0.725820	0.528557	1.228817
H 	1.070967	1.484366	-0.430643
H 	-0.922029	1.005571	-1.407742
H 	-1.296800	1.525514	0.284842
H 	-1.202785	-1.446540	-0.394530
H 	-1.305527	-0.558915	1.172243
H 	-3.485478	0.260447	0.992902
