9
02/11/2019 18:37, XYZ structure generated by mol3D Class, molSimplify
N 	-1.717513	-0.081999	0.168291
N 	-0.440475	0.518684	-0.210866
C 	0.656091	-0.355436	-0.097349
N 	1.850929	-0.093969	0.129241
H 	-1.553911	-0.913663	0.800477
H 	-2.014364	-0.389069	-0.842156
H 	-0.418181	1.544963	0.007330
H 	0.322424	-1.411908	-0.234606
H 	1.875148	0.892719	-0.010302
