14
03/25/2019 10:01, XYZ structure generated by mol3D Class, molSimplify
C 	3.003755	0.009515	-0.089926
C 	1.549685	0.033002	0.041331
C 	0.357147	0.017734	0.187515
C 	-1.100923	-0.059082	0.378119
C 	-1.892886	1.143715	-0.078765
O 	-1.633052	-1.150632	-0.347002
H 	3.532756	0.678530	1.317017
H 	3.240766	0.918274	-1.485300
H 	3.379960	-1.619467	-0.262860
H 	-1.314721	-0.191792	1.461090
H 	-2.955663	1.003552	0.168834
H 	-1.792551	1.263422	-1.159453
H 	-1.550735	2.048186	0.416406
H 	-1.105947	-1.925631	-0.150239
