10
02/13/2019 22:15, XYZ structure generated by mol3D Class, molSimplify
C 	1.909228	-0.545302	-0.029962
O 	1.232122	0.666861	-0.038709
C 	-0.141137	0.599668	0.142862
N 	-0.860398	-0.477466	0.078419
O 	-2.192430	-0.051615	-0.118668
H 	2.808136	-0.355456	0.636210
H 	1.191886	-1.367736	0.366469
H 	2.238010	-0.834868	-1.116831
H 	-0.570084	1.623521	0.081841
H 	-2.562487	-0.898511	0.096124
