11
02/13/2019 22:15, XYZ structure generated by mol3D Class, molSimplify
N 	1.812001	-0.693852	-0.073486
N 	1.274673	0.612622	-0.128900
C 	-0.112975	0.650599	0.037287
N 	-0.865023	-0.376834	0.065103
N 	-2.208037	-0.224724	0.057422
H 	2.757982	-0.726995	-0.388226
H 	1.771113	-1.020017	0.887089
H 	1.701936	1.230433	0.558557
H 	-0.472375	1.694020	0.089450
H 	-2.581653	0.751282	-0.247035
H 	-2.592056	-0.995461	-0.541000
