9
02/13/2019 22:15, XYZ structure generated by mol3D Class, molSimplify
C 	0.747281	-0.986924	0.043375
C 	-0.691897	-0.982101	-0.030988
C 	-1.138890	0.377483	0.015874
O 	0.034545	1.168080	0.021573
C 	1.042745	0.349285	-0.069879
H 	1.445017	-1.757975	0.136800
H 	-1.436850	-1.763656	-0.076137
H 	-2.111645	0.851723	0.001330
H 	2.040556	0.817300	0.091178
