14
03/25/2019 10:01, XYZ structure generated by mol3D Class, molSimplify
C 	-1.648134	-0.986378	0.066009
O 	-1.173871	0.289211	-0.320247
C 	-0.010514	0.451178	0.244496
C 	0.502168	1.880322	-0.061157
C 	1.016254	-0.557795	-0.081733
C 	1.919020	-1.350662	0.046525
H 	-2.657921	-1.042534	-0.330074
H 	-1.616956	-1.195821	1.162094
H 	-1.078053	-1.827478	-0.414348
H 	-0.022458	0.457417	1.365901
H 	1.488368	2.151468	0.431705
H 	-0.330297	2.500694	0.354025
H 	0.631751	2.100850	-1.064273
H 	2.549742	-2.210645	0.006419
