12
02/13/2019 22:15, XYZ structure generated by mol3D Class, molSimplify
C 	-2.291895	-0.347802	0.000094
C 	-1.078868	0.571424	0.001132
N 	0.145753	-0.212626	-0.001608
C 	1.395007	0.315220	-0.002150
O 	2.423395	-0.331380	0.001854
H 	-2.295669	-0.991181	0.886694
H 	-3.215735	0.237632	0.004134
H 	-2.297435	-0.984306	-0.890666
H 	-1.108326	1.219329	0.886611
H 	-1.108454	1.222973	-0.881809
H 	0.090483	-1.222358	0.004363
H 	1.381772	1.424151	-0.005566
