8
02/11/2019 18:37, XYZ structure generated by mol3D Class, molSimplify
N 	1.449466	-0.367691	0.097485
N 	0.547952	0.575944	-0.212825
C 	-0.803359	0.456047	0.036318
O 	-1.408591	-0.656685	0.052596
H 	0.573446	-1.293047	0.535305
H 	2.039852	-0.541945	-1.196977
H 	0.919049	1.566625	0.903682
H 	-1.312841	1.421013	0.093413
