11
02/13/2019 22:15, XYZ structure generated by mol3D Class, molSimplify
C 	1.904513	-0.703972	0.258933
N 	1.053178	0.412015	-0.445960
C 	-0.151692	0.832560	0.326342
C 	-1.312428	-0.006504	0.141140
N 	-2.317343	-0.494307	-0.303371
H 	3.068908	-0.151336	1.025586
H 	1.032500	-1.561506	0.974973
H 	2.330990	-1.435019	-0.930445
H 	0.520672	0.048738	-1.348581
H 	-0.496343	1.865828	0.019159
H 	0.112218	0.852075	1.347566
