12
02/13/2019 22:15, XYZ structure generated by mol3D Class, molSimplify
C 	-1.111530	-1.206938	-0.145528
C 	-0.407303	0.042478	0.385703
N 	-0.980767	1.225883	-0.263623
C 	1.037706	-0.012791	0.107705
C 	2.221144	-0.054756	-0.110369
H 	-0.993652	-1.258833	-1.231345
H 	-2.181729	-1.159569	0.090080
H 	-0.696690	-2.113080	0.304080
H 	-0.520290	0.059635	1.485220
H 	-1.952764	1.320323	0.020360
H 	-0.499163	2.060480	0.061393
H 	3.268671	-0.092035	-0.316924
