13
02/13/2019 22:15, XYZ structure generated by mol3D Class, molSimplify
C 	2.031028	0.459773	-0.499415
C 	1.238082	-0.705458	0.412046
C 	-0.124715	-0.113520	0.661393
N 	-1.014034	-0.054390	-0.507981
N 	-2.303885	0.101548	-0.097486
H 	3.160457	0.339431	-0.466626
H 	1.866967	1.483059	-0.003882
H 	1.361794	0.612903	-1.505381
H 	1.266069	-1.689399	-0.176747
H 	1.791973	-0.824081	1.469927
H 	-0.447788	0.170845	1.880222
H 	-2.476723	0.603966	1.411358
H 	-2.519833	1.081066	-1.219810
