9
02/13/2019 22:15, XYZ structure generated by mol3D Class, molSimplify
O 	2.110081	0.065607	0.153596
C 	1.016442	-0.051758	-0.374737
C 	-0.223479	0.019443	0.457286
C 	-1.437369	0.633396	-0.116009
O 	-1.278266	-0.754709	-0.078898
H 	0.767620	-0.155299	-1.455243
H 	-0.013689	0.027094	1.506023
H 	-2.159564	0.964363	0.647600
H 	-1.455904	1.143863	-1.102841
