10
02/13/2019 22:15, XYZ structure generated by mol3D Class, molSimplify
C 	-0.976141	-0.668768	-0.049018
C 	-0.972736	0.690035	0.014763
C 	0.301542	1.079968	-0.004573
N 	1.127014	0.000616	-0.018152
C 	0.346443	-1.107016	0.047421
H 	-1.901801	-1.362642	-0.024621
H 	-1.794504	1.422465	0.065553
H 	0.726379	2.076303	0.169889
H 	2.142005	0.072416	-0.216452
H 	0.694380	-2.148264	0.155522
