10
02/11/2019 18:37, XYZ structure generated by mol3D Class, molSimplify
C 	1.430347	-0.496488	0.002736
C 	0.538962	0.716614	-0.042507
N 	-0.750840	0.705725	0.035968
N 	-1.332728	-0.509026	0.007123
H 	1.433876	-1.105107	-0.957711
H 	1.051513	-1.199819	0.801346
H 	2.486391	-0.246829	0.224929
H 	0.970920	1.701486	-0.114453
H 	-2.332629	-0.516538	-0.048848
H 	-0.851737	-1.416018	-0.030436
