10
02/13/2019 22:15, XYZ structure generated by mol3D Class, molSimplify
C 	-1.142767	-1.104305	-0.151021
C 	-0.457733	0.041511	0.453736
O 	-0.786020	1.204518	-0.251168
C 	1.002626	-0.141361	0.188122
N 	2.104357	-0.064277	-0.260133
H 	-0.617851	-1.292069	-1.143699
H 	-0.867113	-1.936169	0.544799
H 	-2.234710	-0.767666	-0.183750
H 	-0.629130	0.214616	1.563391
H 	-0.320166	1.923713	0.167667
