11
02/13/2019 22:15, XYZ structure generated by mol3D Class, molSimplify
O 	-2.255830	0.046379	-0.100559
C 	-0.932961	-0.460052	0.121838
C 	0.089693	0.662938	0.076619
C 	1.454182	0.201576	0.028493
C 	2.566063	-0.297086	-0.086058
H 	-2.871027	-0.735147	-0.285015
H 	-0.639303	-1.081004	-0.707240
H 	-0.806952	-1.067262	1.040074
H 	-0.102511	1.362092	0.936508
H 	-0.090601	1.234946	-0.838106
H 	3.566500	-0.777884	-0.227923
