13
02/13/2019 22:15, XYZ structure generated by mol3D Class, molSimplify
N 	-2.085802	0.259969	0.275278
C 	-0.890305	-0.408831	-0.354389
C 	0.350232	0.021237	0.370696
C 	1.430929	0.822668	-0.315832
N 	1.559045	-0.682323	-0.011234
H 	-2.505048	0.809003	-1.245913
H 	-3.065774	-0.655365	1.028547
H 	-0.969888	-1.548537	-0.423284
H 	-0.866634	-0.090535	-1.356236
H 	0.104851	0.252648	1.520037
H 	1.327459	1.029237	-1.420615
H 	1.901799	1.564606	0.406559
H 	2.238725	-0.896632	0.746787
