11
02/11/2019 18:37, XYZ structure generated by mol3D Class, molSimplify
C 	1.450612	-0.002191	0.091999
N 	0.155634	0.004454	-0.552593
C 	-0.893592	-0.742972	0.120670
C 	-0.897936	0.741116	0.123263
H 	2.020514	0.873768	-0.231377
H 	1.383202	0.022090	1.194431
H 	1.996437	-0.900885	-0.199037
H 	-0.653710	-1.235883	1.062273
H 	-1.573336	-1.298573	-0.519188
H 	-0.646106	1.234713	1.066330
H 	-1.582943	1.291054	-0.522229
