12
02/13/2019 22:15, XYZ structure generated by mol3D Class, molSimplify
C 	-1.919321	0.113208	0.086027
N 	-0.644846	-0.629844	-0.228755
C 	0.631101	-0.150785	-0.008053
C 	0.774917	1.315418	-0.018288
O 	1.564009	-0.955960	0.115433
H 	-1.722800	1.212630	-0.217001
H 	-2.203751	0.023452	1.248276
H 	-2.831244	-0.332413	-0.526615
H 	-0.599001	-1.638418	0.002919
H 	-0.018855	1.857617	-0.732440
H 	0.552049	1.607965	1.081768
H 	1.861127	1.667138	-0.221165
