10
02/13/2019 22:15, XYZ structure generated by mol3D Class, molSimplify
O 	2.146564	0.043331	0.065060
C 	0.820948	-0.445245	-0.095056
C 	-0.078479	0.749965	-0.099584
N 	-1.338316	0.670989	0.046454
O 	-1.738443	-0.644784	0.033608
H 	2.730420	-0.730073	0.302054
H 	0.549226	-1.158146	0.752903
H 	0.713052	-0.984424	-1.074480
H 	0.340549	1.747288	0.002048
H 	-2.693140	-0.627367	0.123374
