11
02/13/2019 22:15, XYZ structure generated by mol3D Class, molSimplify
C 	2.092825	-0.396472	-0.388610
C 	1.124650	-0.077453	0.481276
C 	-0.028663	0.736381	0.198036
C 	-1.342752	0.125739	0.038950
C 	-2.352812	-0.443032	-0.270398
H 	2.865741	-1.020605	-0.104240
H 	2.085353	-0.142983	-1.632686
H 	1.168985	-0.433027	1.526135
H 	0.240478	1.445277	-0.690198
H 	-0.163974	1.645199	0.941897
H 	-3.132489	-1.198122	-0.657012
