10
02/11/2019 18:37, XYZ structure generated by mol3D Class, molSimplify
C 	1.514693	-0.512533	-0.000548
C 	0.570083	0.682762	0.012026
C 	-0.804089	0.196867	-0.048912
C 	-1.915519	-0.294762	0.027140
H 	1.310339	-1.003904	0.955417
H 	1.278592	-1.185507	-0.863215
H 	2.527078	-0.185670	-0.087660
H 	0.663622	1.267408	0.919199
H 	0.722207	1.439220	-0.783027
H 	-2.835108	-0.818780	-0.018138
