8
02/13/2019 22:15, XYZ structure generated by mol3D Class, molSimplify
C 	-1.067834	0.428222	0.000385
C 	0.108911	1.130343	-0.001883
N 	1.052385	0.163659	0.002113
N 	0.504255	-1.058302	-0.001542
N 	-0.779979	-0.902216	0.000396
H 	-2.085361	0.790527	0.004838
H 	0.345932	2.185117	-0.001501
H 	2.057646	0.255045	0.001075
