11
02/13/2019 22:15, XYZ structure generated by mol3D Class, molSimplify
C 	1.813829	0.210591	0.151817
N 	0.923794	-0.636256	-0.069176
N 	-0.299024	-0.205433	-0.609644
C 	-1.411315	-0.510242	0.265555
C 	-0.949866	0.905194	0.077457
H 	1.642852	1.282570	0.005362
H 	2.731839	-0.115663	0.548629
H 	-1.230777	-0.888539	1.281570
H 	-2.326518	-0.939885	-0.115513
H 	-1.473000	1.580353	-0.610733
H 	-0.477143	1.354442	0.958907
