12
03/25/2019 10:01, XYZ structure generated by mol3D Class, molSimplify
C 	1.386195	1.104974	0.250254
N 	0.629684	0.004288	-0.392008
O 	1.282607	-1.202178	-0.067100
C 	-0.709304	-0.095795	-0.053149
N 	-1.496678	1.055725	-0.170846
O 	-1.261266	-1.151002	0.256668
H 	2.466147	1.090432	-0.119509
H 	0.981407	2.114319	-0.014612
H 	1.339620	1.008111	1.379939
H 	0.476445	-1.798482	0.121646
H 	-1.110562	2.009146	-0.055280
H 	-2.447573	0.930432	0.116370
