10
02/13/2019 22:15, XYZ structure generated by mol3D Class, molSimplify
C 	2.329299	-0.015782	0.000999
C 	0.873615	-0.391339	-0.001880
C 	-0.121887	0.499447	-0.000043
C 	-1.499987	0.097398	0.000070
N 	-2.615144	-0.217562	0.000726
H 	2.577926	0.585641	0.881710
H 	2.583234	0.579694	-0.883350
H 	2.969777	-0.900436	0.007499
H 	0.619940	-1.449137	-0.005251
H 	0.069903	1.569760	-0.000544
