8
02/11/2019 18:37, XYZ structure generated by mol3D Class, molSimplify
C 	-1.350769	-0.403640	-0.000085
O 	-0.478839	0.731599	-0.000248
C 	0.823252	0.436272	-0.000021
O 	1.288705	-0.673228	0.000177
H 	-1.177945	-1.015544	0.889131
H 	-2.363211	0.000234	0.002596
H 	-1.182657	-1.014366	-0.890680
H 	1.408422	1.366977	0.001337
