15
02/13/2019 22:15, XYZ structure generated by mol3D Class, molSimplify
C 	-1.423377	-0.027443	-0.371909
C 	0.026183	0.002267	0.008506
C 	0.653087	1.245388	-0.478345
C 	0.668122	-1.285299	-0.541037
O 	0.010616	0.058460	1.465024
H 	-1.977042	0.794089	0.133893
H 	-1.961101	-0.883245	-0.023118
H 	-1.614477	0.024954	-1.391508
H 	0.492419	1.407736	-1.565027
H 	1.718786	1.187900	-0.238519
H 	0.238059	2.056324	0.010441
H 	0.108115	-2.098407	-0.079018
H 	1.748816	-1.419502	-0.316075
H 	0.472101	-1.240037	-1.643000
H 	0.967917	0.017370	1.703098
