12
03/25/2019 10:02, XYZ structure generated by mol3D Class, molSimplify
C 	-2.183663	0.048708	0.039331
C 	-0.697064	-0.027133	-0.056659
C 	0.188512	1.107612	0.015192
C 	1.481588	0.650405	0.026980
O 	1.463271	-0.704321	0.003288
C 	0.164273	-1.068672	-0.045746
H 	-2.658455	-0.646700	-0.693691
H 	-2.625728	-0.150763	1.093266
H 	-2.465339	1.143620	-0.335245
H 	-0.175765	2.110773	-0.014782
H 	2.434320	1.154958	0.109281
H 	0.033089	-2.124225	0.037861
