9
02/11/2019 18:37, XYZ structure generated by mol3D Class, molSimplify
N 	1.457915	-0.496491	-0.123848
C 	0.569649	0.659152	-0.021434
C 	-0.740915	0.173214	-0.065970
C 	-1.865264	-0.260525	0.072681
H 	0.642792	-1.641691	0.093441
H 	2.504536	-0.497865	0.848828
H 	0.624347	1.192102	1.010239
H 	0.739365	1.308764	-0.784763
H 	-2.854595	-0.810991	0.001702
