9
02/13/2019 22:15, XYZ structure generated by mol3D Class, molSimplify
C 	2.239045	-0.576614	-0.000332
C 	1.226850	0.072325	0.000112
C 	-0.000131	0.882062	0.000498
C 	-1.226708	0.072128	-0.000668
C 	-2.239403	-0.576264	-0.000263
H 	3.134978	-1.158082	0.002352
H 	0.001212	1.539821	-0.878358
H 	0.001932	1.539835	0.878409
H 	-3.133982	-1.161693	0.005372
