10
02/11/2019 18:37, XYZ structure generated by mol3D Class, molSimplify
C 	1.576082	-0.488966	-0.000035
C 	0.552868	0.651488	-0.000046
C 	-0.830208	0.162083	0.000181
C 	-1.957588	-0.261250	-0.000043
H 	1.452570	-1.120903	0.884871
H 	1.454401	-1.119576	-0.885915
H 	2.594765	-0.088711	0.001135
H 	0.704790	1.291387	0.877599
H 	0.705278	1.289914	-0.878854
H 	-2.959149	-0.632426	0.000475
