12
03/25/2019 10:01, XYZ structure generated by mol3D Class, molSimplify
O 	1.511960	-1.187783	0.171426
C 	1.245951	0.045079	-0.401604
C 	0.839394	1.177962	0.469667
C 	-0.221890	0.565731	-0.456792
C 	-1.251818	-0.235114	0.246096
O 	-2.433435	-0.205882	-0.045882
H 	1.297969	-1.853204	-0.520440
H 	1.886472	0.324314	-1.229488
H 	1.206683	2.186513	0.251706
H 	0.798498	0.918656	1.549111
H 	-0.554305	1.120084	-1.300004
H 	-0.866723	-0.897360	1.052141
