16
03/25/2019 10:01, XYZ structure generated by mol3D Class, molSimplify
C 	-1.355037	-0.028922	0.417976
C 	-0.738957	-1.201530	-0.263269
C 	0.732131	-0.782995	-0.362565
C 	1.506076	0.048805	0.735592
C 	0.766947	0.758340	-0.419849
C 	-0.712694	1.211142	-0.180794
H 	-2.444291	-0.078268	0.357431
H 	-0.969296	-0.126393	1.517394
H 	-0.984258	-2.086273	0.386585
H 	-1.139719	-1.398736	-1.225793
H 	1.319237	-1.343224	-1.077892
H 	2.637217	-0.041432	0.764108
H 	0.977479	0.094552	1.723061
H 	1.361987	1.286869	-1.217258
H 	-0.796209	2.222458	0.310479
H 	-1.127218	1.412830	-1.189406
