17
03/25/2019 10:01, XYZ structure generated by mol3D Class, molSimplify
C 	-0.929102	1.403715	0.123372
C 	-0.391459	-0.018537	0.008743
C 	-1.526581	-1.026888	-0.086013
C 	0.716519	-0.315113	1.047837
C 	1.718022	-0.033053	-0.084789
N 	0.624685	-0.181297	-1.060979
H 	-1.584129	1.508002	0.996004
H 	-1.517681	1.663215	-0.765164
H 	-0.117369	2.133848	0.222752
H 	-2.156685	-0.994436	0.812258
H 	-2.155952	-0.810654	-0.957049
H 	-1.122797	-2.035360	-0.206135
H 	0.754568	0.335410	1.926430
H 	0.722383	-1.361508	1.370726
H 	2.142792	0.978916	-0.021362
H 	2.541627	-0.744102	-0.219212
H 	0.596754	0.535158	-1.783559
