15
02/13/2019 22:15, XYZ structure generated by mol3D Class, molSimplify
C 	-2.526640	-0.369018	-0.029021
C 	-1.235945	0.495611	-0.022514
C 	0.108729	-0.232930	0.087439
C 	1.249276	0.465766	0.076700
C 	2.601789	-0.265884	-0.070083
H 	-3.381648	0.280852	-0.177429
H 	-2.561131	-0.982310	-0.899397
H 	-2.669954	-0.934587	0.933730
H 	-1.321261	1.179080	-0.886283
H 	-1.294534	1.189661	0.774602
H 	0.000196	-1.371900	0.124335
H 	1.161093	1.605421	-0.103211
H 	3.507114	0.377144	-0.105063
H 	2.576447	-0.855944	0.818038
H 	2.515607	-0.872656	-0.985598
