15
02/13/2019 22:15, XYZ structure generated by mol3D Class, molSimplify
N 	-2.554470	-0.152146	-0.006723
C 	-1.218064	0.463977	0.113050
C 	0.055020	-0.450319	-0.032776
C 	1.204107	0.496919	-0.128153
N 	2.433340	-0.302154	-0.010417
H 	-2.749605	-0.375445	-1.077019
H 	-2.500635	-1.077368	0.545236
H 	-1.105790	0.887498	1.141572
H 	-1.131567	1.319866	-0.603685
H 	-0.021061	-0.957986	-0.990178
H 	0.160415	-1.225456	0.772987
H 	1.170321	1.288068	0.652422
H 	1.127229	0.990146	-1.152080
H 	3.246703	0.269528	0.218441
H 	2.353803	-1.081444	0.683021
