11
02/13/2019 22:15, XYZ structure generated by mol3D Class, molSimplify
C 	1.069942	1.163543	-0.166641
C 	0.401965	-0.132100	0.405629
O 	1.019874	-1.247663	-0.190965
C 	-1.074850	-0.115195	0.018287
C 	-2.243691	0.212025	-0.057125
H 	2.095175	1.193948	0.224851
H 	0.948219	1.181098	-1.195951
H 	0.579568	2.064820	0.211662
H 	0.510741	-0.206135	1.443313
H 	2.017788	-1.193162	-0.188654
H 	-3.318141	0.224549	-0.173245
