16
03/25/2019 10:01, XYZ structure generated by mol3D Class, molSimplify
C 	-2.084347	0.028145	-0.554559
O 	-1.413607	-0.071751	0.668038
C 	-0.003664	0.016894	0.633735
C 	0.832111	-1.021896	-0.058508
C 	1.962546	-0.027069	-0.241367
C 	0.897327	1.083812	-0.198718
H 	-2.259486	1.275863	-0.806069
H 	-3.114317	-0.458239	-0.304216
H 	-1.388698	-0.543363	-1.531480
H 	0.265796	-0.009228	1.735481
H 	0.997575	-2.025813	0.432418
H 	0.298398	-1.270617	-1.032091
H 	2.681148	-0.078149	-1.103377
H 	2.627009	-0.086791	0.670357
H 	1.288844	2.060372	0.316308
H 	0.304203	1.323477	-1.102903
