13
02/11/2019 18:37, XYZ structure generated by mol3D Class, molSimplify
C 	-1.083092	-0.936156	0.113604
C 	-0.030228	0.006757	-0.369237
C 	1.347472	-0.461575	0.076600
N 	-0.150713	1.436990	0.080443
H 	-2.111415	-0.306241	0.098803
H 	-0.890245	-1.204008	1.181380
H 	-1.035147	-1.831741	-0.524383
H 	-0.085460	0.080851	-1.444594
H 	2.141080	0.108953	-0.308217
H 	1.634092	-1.507867	-0.174442
H 	1.381325	-0.366664	1.187591
H 	-0.596660	1.493292	1.042739
H 	-0.805711	2.025399	-0.729443
