10
02/13/2019 22:15, XYZ structure generated by mol3D Class, molSimplify
O 	1.376285	-0.993017	0.039303
C 	1.219903	0.423401	-0.285296
C 	-0.099700	1.073505	0.188179
C 	-1.250945	0.097640	-0.031991
N 	-2.106966	-0.719520	-0.026750
H 	1.471979	-1.218746	1.081800
H 	1.283569	0.382377	-1.389167
H 	2.136559	0.943299	0.103276
H 	-0.360473	2.051288	-0.256317
H 	0.015974	1.207856	1.233994
