10
02/11/2019 18:17, XYZ structure generated by mol3D Class, molSimplify
C 	-1.262591	-0.227265	-0.087641
C 	0.072401	0.534047	0.057789
N 	1.151181	-0.364880	-0.037204
H 	-2.177840	0.313949	0.253074
H 	-1.538945	-0.462624	-1.170191
H 	-1.188915	-1.187633	0.575217
H 	0.270878	1.498284	-0.600376
H 	0.151895	0.995560	1.092348
H 	1.916801	-0.321591	1.282625
H 	1.985467	0.257749	-1.226883
