10
02/13/2019 22:15, XYZ structure generated by mol3D Class, molSimplify
C 	-2.242171	0.176961	-0.164723
C 	-1.083953	-0.101068	0.146996
C 	0.297035	-0.225552	0.519921
C 	1.166700	0.774844	-0.081856
N 	1.281887	-0.697427	-0.474753
H 	-3.281280	0.324737	-0.535161
H 	0.608271	-0.478402	1.568462
H 	2.026427	1.163813	0.482915
H 	0.772339	1.371911	-0.941046
H 	2.047276	-1.100168	0.191735
