13
03/25/2019 10:01, XYZ structure generated by mol3D Class, molSimplify
N 	1.077027	1.326140	0.236361
C 	1.128096	0.043026	-0.369310
C 	0.977500	-1.042905	0.546263
C 	-0.123039	-0.813874	-0.396623
C 	-1.382493	-0.186417	-0.145025
C 	-2.403787	0.429882	0.100669
H 	2.043654	1.728819	0.189710
H 	0.486079	1.883779	-0.466788
H 	1.833600	-0.125523	-1.106529
H 	0.860644	-0.744458	1.568628
H 	1.536073	-1.964287	0.436879
H 	-0.138420	-1.472185	-1.257982
H 	-3.326230	0.925650	0.513826
