13
03/25/2019 10:02, XYZ structure generated by mol3D Class, molSimplify
C 	2.757685	-0.465656	-0.341652
C 	1.780728	0.312098	0.232245
C 	0.343574	-0.165795	0.466809
C 	-0.692239	0.760044	-0.168490
C 	-1.966265	0.003702	-0.183301
N 	-3.019399	-0.498499	-0.029968
H 	3.833611	-0.055764	-0.181250
H 	2.563748	-1.473504	-0.748142
H 	2.133497	1.218312	0.688512
H 	0.217803	-0.332238	1.536849
H 	0.378931	-1.138029	0.004960
H 	-0.839545	1.731736	0.417901
H 	-0.499487	0.991722	-1.252786
