13
02/13/2019 22:15, XYZ structure generated by mol3D Class, molSimplify
C 	1.636616	-0.668130	0.111171
C 	0.637690	0.374656	-0.324226
C 	-0.295349	1.223628	0.510553
C 	-0.829366	0.216615	-0.441713
O 	-1.193706	-0.993023	0.061841
H 	3.124286	-0.280334	-0.578346
H 	1.765162	-0.388859	1.765166
H 	1.014992	-2.048730	-0.393862
H 	0.997300	0.827842	-1.295424
H 	-0.314194	0.939933	1.542520
H 	-0.296994	2.386035	0.443659
H 	-1.246261	0.506476	-1.462532
H 	-2.321152	-0.957985	0.056615
