12
02/11/2019 18:37, XYZ structure generated by mol3D Class, molSimplify
C 	-1.568511	-0.490283	0.123427
C 	-0.638395	0.620633	-0.305609
C 	0.774325	0.532671	0.288266
O 	1.479756	-0.648098	-0.053666
H 	-1.131129	-1.458767	-0.123656
H 	-1.739741	-0.493123	1.216309
H 	-2.529913	-0.401233	-0.353848
H 	-0.615901	0.729465	-1.410701
H 	-0.986002	1.588224	0.113967
H 	0.672203	0.494863	1.389917
H 	1.364826	1.418856	0.050078
H 	1.711532	-0.632462	-1.007936
