15
02/13/2019 22:15, XYZ structure generated by mol3D Class, molSimplify
C 	-2.424747	-0.451610	0.169364
C 	-1.268170	0.521248	-0.280763
C 	0.097260	-0.088455	0.038124
C 	1.291057	0.504131	0.184448
C 	2.475133	-0.355385	-0.068196
H 	-3.311469	0.130116	0.236528
H 	-2.639993	-1.193480	-0.624602
H 	-2.251820	-0.913001	1.175910
H 	-1.404298	0.915176	-1.458237
H 	-1.265474	1.617256	0.277493
H 	0.079524	-1.237977	-0.111188
H 	1.228810	1.667153	0.369459
H 	3.346320	0.292827	1.157689
H 	2.106029	-2.063567	0.105867
H 	2.961932	-0.032955	-1.640645
