14
03/25/2019 10:01, XYZ structure generated by mol3D Class, molSimplify
C 	2.009516	-0.767020	-0.132481
N 	1.339895	0.475870	0.062920
C 	-0.076724	0.559233	0.046271
N 	-0.906686	1.525754	-0.067935
O 	-0.496241	-0.716984	0.254063
C 	-1.974918	-0.819198	-0.124502
H 	3.071314	-0.632918	-0.308787
H 	1.658134	-1.316982	-1.056934
H 	1.855911	-1.492012	0.758345
H 	1.757515	1.317728	0.086275
H 	-0.451727	2.455737	-0.223925
H 	-2.667158	-0.463382	0.752941
H 	-2.022286	-0.192186	-1.111598
H 	-2.134200	-1.917164	-0.349915
