14
02/13/2019 22:15, XYZ structure generated by mol3D Class, molSimplify
N 	1.884721	-0.699898	0.049905
C 	1.200040	0.511252	-0.397357
C 	-0.096031	0.713420	0.392297
C 	-1.087906	-0.392610	0.167617
C 	-2.353127	-0.207628	-0.195586
H 	2.678415	-0.896494	-0.551871
H 	2.260806	-0.554610	0.983281
H 	1.815383	1.424060	-0.315919
H 	0.953801	0.385447	-1.458425
H 	-0.542576	1.679382	0.124890
H 	0.157572	0.769494	1.462391
H 	-0.699786	-1.401105	0.305539
H 	-2.763765	0.789376	-0.349701
H 	-3.030905	-1.042965	-0.351490
