9
02/13/2019 22:15, XYZ structure generated by mol3D Class, molSimplify
N 	2.208892	-0.031526	-0.061066
N 	0.917069	-0.441168	-0.033227
C 	-0.003602	0.424514	-0.044791
C 	-1.373353	0.029315	0.005210
C 	-2.558041	-0.101472	0.027265
H 	2.732153	-0.757644	0.367020
H 	2.328482	0.844548	0.439739
H 	0.126117	1.479243	-0.034405
H 	-3.580288	-0.443438	0.102948
