11
02/13/2019 22:15, XYZ structure generated by mol3D Class, molSimplify
C 	2.503181	-0.023272	-0.122332
C 	1.211846	0.311624	-0.294610
C 	-0.090361	-0.544252	0.311194
C 	-1.309857	0.340040	0.648579
O 	-2.448339	-0.092331	-0.569293
H 	3.233202	0.800247	-0.342148
H 	2.858244	-1.038466	0.534087
H 	1.216609	1.434996	-0.880910
H 	-0.560161	-1.469458	-0.241477
H 	0.040228	-0.828955	1.498955
H 	-1.056204	1.499808	2.003191
