8
02/11/2019 18:37, XYZ structure generated by mol3D Class, molSimplify
O 	1.293102	-0.553208	-0.093918
N 	0.588906	0.657634	0.031089
C 	-0.805927	0.490140	0.090864
N 	-1.457607	-0.571878	-0.035006
H 	1.630042	-0.581089	0.866153
H 	0.961320	1.473752	-0.512492
H 	-1.274441	1.501859	0.217230
H 	-0.743639	-1.370019	-0.307248
