12
03/25/2019 10:01, XYZ structure generated by mol3D Class, molSimplify
C 	2.095124	-0.735941	-0.019414
N 	0.578396	-0.608812	0.028386
C 	-0.013763	0.588351	-0.019301
O 	0.472482	1.682135	-0.017308
N 	-1.436789	0.410850	-0.165096
O 	-1.695927	-0.925847	0.136270
H 	2.391791	-1.542486	0.968546
H 	2.450140	-1.272856	-0.924288
H 	2.465503	0.331657	0.284395
H 	-0.076460	-1.363517	0.114951
H 	-1.816562	1.027644	0.554905
H 	-2.237843	-1.225503	-0.558901
