10
02/13/2019 22:15, XYZ structure generated by mol3D Class, molSimplify
C 	1.202775	-0.091905	-0.132704
C 	0.314181	1.182379	0.114040
C 	-1.062914	0.572487	-0.118585
N 	-1.019479	-0.715065	-0.025649
O 	0.250393	-1.175696	0.132445
H 	1.541361	-0.136730	-1.181521
H 	2.030656	-0.132221	0.604519
H 	0.507338	2.027951	-0.624474
H 	0.273114	1.672651	1.132857
H 	-2.077782	1.025628	-0.042796
