15
02/13/2019 22:15, XYZ structure generated by mol3D Class, molSimplify
C 	-1.925124	-0.532388	-0.132671
C 	-0.618576	-0.052437	0.536604
C 	0.039577	1.263750	0.011540
C 	0.559094	-0.076277	-0.407217
C 	1.913358	-0.467224	0.019870
H 	-1.901244	-0.516647	-1.305037
H 	-2.812865	0.062262	0.307855
H 	-2.065561	-1.614365	0.166919
H 	-0.488829	-0.204702	1.616561
H 	-0.418417	1.817102	-0.722408
H 	0.862748	1.802531	0.613057
H 	0.247198	-0.352109	-1.467010
H 	2.132024	-1.592472	-0.231146
H 	1.994273	-0.341648	1.119667
H 	2.827769	-0.015268	-0.433356
