14
02/13/2019 22:15, XYZ structure generated by mol3D Class, molSimplify
N 	1.701131	-0.853659	-0.252064
C 	1.112116	0.582964	-0.299821
C 	-0.103729	0.898704	0.552686
C 	-1.039389	-0.357075	0.660675
C 	-2.106453	-0.341574	-0.563454
H 	2.382632	-0.971786	-0.903903
H 	2.202693	-0.986837	0.674787
H 	1.989430	1.347627	-0.014581
H 	0.699339	0.811143	-1.370620
H 	-0.496656	1.834968	-0.069690
H 	0.065641	1.452781	1.622136
H 	-0.813331	-1.230648	1.859940
H 	-2.397895	0.527871	-1.793598
H 	-2.628269	-1.384371	-0.521813
