12
02/11/2019 18:37, XYZ structure generated by mol3D Class, molSimplify
C 	1.420226	0.535869	-0.023247
C 	0.579912	-0.612774	0.243945
O 	-0.688439	-0.605161	-0.434807
C 	-1.367976	0.463799	0.111500
H 	2.442116	0.335136	0.339980
H 	1.535458	0.666485	-1.162073
H 	1.132281	1.518198	0.433833
H 	0.526229	-0.826236	1.272458
H 	1.055604	-1.514750	-0.054961
H 	-1.165583	1.437983	-0.534614
H 	-2.579599	0.371962	-0.046896
H 	-1.084351	0.725977	1.239476
