11
02/13/2019 22:15, XYZ structure generated by mol3D Class, molSimplify
O 	1.871875	0.050627	0.273256
C 	0.650753	-0.051786	-0.111922
C 	-0.399659	-1.126967	-0.229169
C 	-1.482533	0.004601	0.323323
C 	-0.337938	1.083528	-0.275767
H 	-0.527945	-1.269072	-1.547122
H 	-0.090821	-2.144207	0.329752
H 	-2.658874	0.064509	-0.146367
H 	-1.621906	0.096620	1.495620
H 	-0.574877	1.448381	-1.341521
H 	-0.035245	2.079318	0.367938
