11
02/13/2019 22:15, XYZ structure generated by mol3D Class, molSimplify
C 	1.916667	0.498547	-0.346608
C 	0.912056	-0.313965	0.501700
O 	-0.195295	-0.887581	-0.222587
C 	-1.438765	-0.200398	-0.208415
O 	-1.597586	0.834860	0.293948
H 	2.810258	0.673669	0.386917
H 	2.354548	-0.045249	-1.153445
H 	1.486978	1.384649	-0.919889
H 	1.425964	-1.148250	0.884545
H 	0.590642	0.242536	1.366812
H 	-2.263247	-0.608956	-0.866210
