10
02/11/2019 18:37, XYZ structure generated by mol3D Class, molSimplify
C 	-1.415372	-0.126180	0.000383
C 	0.087968	0.108722	0.020492
N 	0.892473	-1.019599	-0.005291
N 	0.465880	1.320095	0.004777
H 	-1.785377	0.206196	-0.983825
H 	-1.686549	-1.199914	0.181358
H 	-1.963790	0.491172	0.758452
H 	0.451285	-1.935354	-0.088164
H 	1.899509	-0.881778	-0.144061
H 	1.511943	1.402278	0.034789
