15
02/13/2019 22:15, XYZ structure generated by mol3D Class, molSimplify
C 	-1.667682	-0.893473	-0.079577
C 	-0.489453	0.107802	-0.265780
C 	-0.714621	1.604307	0.172590
C 	0.773012	-0.574036	0.420511
O 	2.064161	-0.177826	-0.339870
H 	-1.388711	-1.833017	-0.757356
H 	-1.698945	-1.239100	1.031064
H 	-2.584643	-0.370476	-0.357964
H 	-0.387189	0.150864	-1.320243
H 	-1.074730	1.632984	1.219022
H 	-1.359521	2.144440	-0.700311
H 	0.249500	2.156074	0.301850
H 	0.701457	-1.640893	0.148701
H 	0.803344	-0.382930	1.476654
H 	2.832236	-0.446849	0.267128
