10
02/11/2019 18:37, XYZ structure generated by mol3D Class, molSimplify
O 	1.455667	-0.085910	-0.189243
C 	0.245965	-0.021640	0.445673
C 	-0.871470	0.747719	-0.136323
C 	-0.928656	-0.737581	-0.135413
H 	2.083238	0.602042	0.144581
H 	0.281434	-0.022856	1.547347
H 	-0.810533	1.197750	-1.136152
H 	-1.465036	1.377542	0.578235
H 	-1.544019	-1.174414	0.566291
H 	-0.855284	-1.262333	-1.092685
