10
03/25/2019 10:02, XYZ structure generated by mol3D Class, molSimplify
O 	-2.036162	0.042385	0.127542
C 	-0.853889	0.010253	-0.012967
O 	-0.114247	1.107855	-0.353942
C 	1.259042	0.717591	0.310072
C 	1.310670	-0.790924	-0.147707
O 	-0.018920	-1.112153	0.087739
H 	2.231231	1.464599	-0.238842
H 	1.211120	0.984324	1.586724
H 	1.517947	-0.899364	-1.398758
H 	2.085304	-1.402957	0.472648
