11
02/13/2019 22:15, XYZ structure generated by mol3D Class, molSimplify
C 	1.982480	0.179666	0.169981
C 	0.716717	-0.784773	-0.161253
C 	-0.566184	0.026928	-0.042751
O 	-1.747873	-0.587089	0.200847
O 	-0.556152	1.244871	-0.171865
H 	2.857987	-0.401605	-0.543770
H 	1.973086	0.072924	1.566483
H 	1.775608	1.575036	-0.265075
H 	0.778116	-1.206936	-1.233611
H 	0.637943	-1.776782	0.519230
H 	-2.451910	0.051502	-0.098129
