13
02/13/2019 22:15, XYZ structure generated by mol3D Class, molSimplify
C 	1.864109	0.737406	0.172036
C 	1.180537	-0.502778	-0.285984
N 	-0.164826	-0.739906	0.339427
N 	-1.067440	-0.048736	-0.463526
C 	-2.181084	0.387533	0.066742
H 	1.968280	0.707368	1.317122
H 	2.842077	0.792242	-0.328878
H 	1.281669	1.484854	-0.323770
H 	1.819305	-1.416354	-0.095149
H 	1.010580	-0.348738	-1.390047
H 	-0.174708	-0.283379	1.299470
H 	-2.536744	0.139660	1.075117
H 	-2.671270	0.926223	-0.753631
