12
03/25/2019 10:01, XYZ structure generated by mol3D Class, molSimplify
N 	2.906017	0.050574	-0.071821
N 	1.616306	-0.392606	-0.077459
C 	0.567958	0.347035	-0.015807
N 	-0.687901	-0.278951	0.047790
N 	-1.768727	0.472784	-0.068087
C 	-2.908859	-0.137757	0.055900
H 	2.917344	0.803540	0.567992
H 	3.482362	-0.541934	0.483624
H 	0.636490	1.407032	0.129815
H 	-0.734183	-1.332292	0.063894
H 	-3.756155	0.496984	0.159317
H 	-2.862629	-1.254066	0.080178
