12
03/25/2019 10:02, XYZ structure generated by mol3D Class, molSimplify
C 	-0.833537	1.654767	0.019099
C 	0.050008	0.431133	0.065553
N 	-0.498030	-0.839917	0.340796
O 	-1.751758	-0.976809	-0.285331
N 	1.304178	0.577870	-0.100615
O 	1.963012	-0.678234	-0.006445
H 	-1.508985	1.690361	0.895659
H 	-1.525230	1.618403	-0.814509
H 	-0.238171	2.593248	-0.039934
H 	0.080927	-1.535701	-0.082290
H 	-2.354267	-1.352391	0.413492
H 	2.847460	-0.455577	-0.333680
