13
02/13/2019 22:15, XYZ structure generated by mol3D Class, molSimplify
C 	-1.814421	-0.609971	0.033001
C 	-0.418604	-0.062020	0.028719
C 	-0.291730	1.380643	-0.000667
N 	0.661017	-0.839711	-0.096462
N 	1.886299	-0.173067	-0.074221
H 	-1.752032	-1.749161	0.368142
H 	-2.381094	0.109807	0.745345
H 	-2.341659	-0.536521	-0.984992
H 	0.522313	1.801208	-0.722343
H 	0.012016	1.862121	0.937663
H 	-1.302981	1.747752	-0.272173
H 	2.530889	-0.909557	0.244429
H 	1.966376	0.559422	0.616737
