16
03/25/2019 10:02, XYZ structure generated by mol3D Class, molSimplify
C 	-1.937171	-0.962031	-0.155665
C 	-0.408857	-1.134056	0.187681
C 	0.571736	-0.213273	-0.016887
C 	1.958265	-0.697974	0.057791
C 	0.445123	1.224024	-0.342110
C 	-0.506087	1.960015	0.259250
H 	-2.604066	-1.171585	0.717690
H 	-2.402904	-1.716622	-0.872686
H 	-2.146804	0.142094	-0.495977
H 	-0.141289	-2.107069	0.586842
H 	2.101563	-1.838484	-0.094987
H 	2.390900	-0.539144	1.084307
H 	2.643289	-0.091616	-0.694912
H 	1.040551	1.566491	-1.213495
H 	-0.624952	3.054007	-0.090305
H 	-1.155749	1.455684	0.971101
