12
02/11/2019 18:37, XYZ structure generated by mol3D Class, molSimplify
C 	1.766625	0.422633	-0.261423
C 	0.608815	-0.475182	0.320986
O 	-0.669766	-0.445128	-0.433697
C 	-1.709974	0.297417	0.230772
H 	2.480403	0.576912	0.780730
H 	2.313774	0.036765	-1.330646
H 	1.249234	1.504461	-0.444343
H 	0.291719	-0.198156	1.423626
H 	0.813354	-1.587608	0.344453
H 	-0.797187	1.389674	1.442150
H 	-2.225020	0.898537	-1.305462
H 	-2.957019	-0.754576	1.057549
