10
02/13/2019 22:15, XYZ structure generated by mol3D Class, molSimplify
C 	-2.361298	-0.012391	-0.143984
C 	-1.144922	0.017500	0.079909
C 	0.258343	-0.053357	0.503728
C 	1.490256	0.701681	-0.044106
N 	1.186469	-0.649977	-0.500293
H 	-3.560069	-0.450685	-0.136554
H 	0.326974	-0.293607	1.509384
H 	2.306807	0.644383	0.762727
H 	1.389941	1.637130	-0.749142
H 	1.787700	-1.250943	0.030546
