16
03/25/2019 10:01, XYZ structure generated by mol3D Class, molSimplify
C 	2.457909	-0.644355	-0.000434
C 	1.665362	0.631412	-0.000060
C 	0.337488	0.759367	0.000365
C 	-0.675498	-0.322302	0.000677
C 	-1.970026	-0.111600	0.747989
C 	-1.969172	-0.111962	-0.748349
H 	1.824136	-1.535332	-0.000338
H 	3.109832	-0.697254	0.880077
H 	3.109016	-0.697422	-0.881420
H 	2.257986	1.546247	-0.000705
H 	-0.078335	1.769127	0.000522
H 	-0.291958	-1.339259	0.001025
H 	-2.102911	0.838235	1.259839
H 	-2.402591	-0.962246	1.266529
H 	-2.101233	0.837475	-1.260876
H 	-2.400222	-0.963399	-1.266943
