16
03/25/2019 10:01, XYZ structure generated by mol3D Class, molSimplify
C 	-1.072751	1.049240	0.832939
C 	-0.731403	0.226314	-0.382316
O 	-1.664541	-0.845603	-0.462544
C 	0.746638	-0.237857	-0.375031
C 	1.098990	-1.055932	0.851049
O 	1.620422	0.865722	-0.454830
H 	-2.047008	1.509757	0.695120
H 	-1.085843	0.393345	1.711651
H 	-0.283450	1.802818	0.987736
H 	-0.855071	0.866053	-1.265151
H 	-1.457056	-1.332747	-1.266365
H 	0.866502	-0.904479	-1.254838
H 	0.405727	-1.906685	0.947523
H 	2.126463	-1.406829	0.743986
H 	1.072913	-0.445238	1.778724
H 	1.463204	1.321808	-1.288508
