14
03/25/2019 10:01, XYZ structure generated by mol3D Class, molSimplify
C 	1.204713	1.425371	0.091925
C 	1.135640	-0.015214	-0.307609
C 	0.870562	-1.080442	0.616034
C 	-0.156296	-0.845591	-0.485266
C 	-1.402013	-0.202693	-0.201990
C 	-2.354987	0.448361	0.159545
H 	1.043908	2.108138	-0.749570
H 	0.698539	1.830633	0.948715
H 	2.250128	1.640667	0.388458
H 	1.876281	-0.269475	-1.064982
H 	0.453463	-0.871905	1.610207
H 	1.502932	-2.005426	0.448235
H 	-0.105885	-1.537275	-1.303983
H 	-3.274086	0.782182	0.520156
