12
03/25/2019 10:02, XYZ structure generated by mol3D Class, molSimplify
C 	-0.840994	1.592273	0.062405
C 	0.119652	0.460396	-0.000521
N 	-0.501846	-0.787845	0.327873
O 	-1.788436	-1.034198	-0.303100
N 	1.339020	0.627091	-0.070399
O 	1.925270	-0.682603	0.030903
H 	-1.507838	1.673447	0.903318
H 	-1.391808	1.711424	-0.929524
H 	-0.260776	2.492975	0.014641
H 	0.005189	-1.666042	0.177412
H 	-2.290246	-1.119950	0.511675
H 	2.756764	-0.565086	-0.918719
