13
03/25/2019 10:01, XYZ structure generated by mol3D Class, molSimplify
C 	2.432742	-0.273039	-0.003757
N 	0.986486	-0.256263	0.008326
C 	0.332105	0.913066	-0.012753
C 	-1.020589	1.045121	0.007427
C 	-1.880669	-0.071977	-0.053318
O 	-1.455048	-1.222999	0.056892
H 	2.839294	0.732301	0.320610
H 	2.748328	-1.117650	0.731735
H 	2.822995	-0.531036	-1.085414
H 	0.454379	-1.072344	-0.073752
H 	1.134799	1.718698	-0.086855
H 	-1.355240	2.050539	0.097407
H 	-2.962837	0.107422	-0.179340
